
     RDKit          2D

 24 25  0  0  0  0  0  0  0  0999 V2000
    3.7500   -1.2990    0.0000 C   0  0  0  0  0  0  0  0  0  0  0  0
    3.0000    0.0000    0.0000 O   0  0  0  0  0  0  0  0  0  0  0  0
    1.5000    0.0000    0.0000 C   0  0  0  0  0  0  0  0  0  0  0  0
    0.7500   -1.2990    0.0000 C   0  0  0  0  0  0  0  0  0  0  0  0
   -0.7500   -1.2990    0.0000 C   0  0  0  0  0  0  0  0  0  0  0  0
   -1.5000   -2.5981    0.0000 C   0  0  0  0  0  0  0  0  0  0  0  0
   -0.7500   -3.8971    0.0000 O   0  0  0  0  0  0  0  0  0  0  0  0
   -3.0000   -2.5981    0.0000 O   0  0  0  0  0  0  0  0  0  0  0  0
   -1.5000    0.0000    0.0000 C   0  0  0  0  0  0  0  0  0  0  0  0
   -3.0000    0.0000    0.0000 Cl  0  0  0  0  0  0  0  0  0  0  0  0
   -0.7500    1.2990    0.0000 C   0  0  0  0  0  0  0  0  0  0  0  0
    0.7500    1.2990    0.0000 C   0  0  0  0  0  0  0  0  0  0  0  0
    1.5000    2.5981    0.0000 N   0  0  0  0  0  0  0  0  0  0  0  0
    3.0000    2.5981    0.0000 C   0  0  0  0  0  0  0  0  0  0  0  0
    3.7500    1.2990    0.0000 O   0  0  0  0  0  0  0  0  0  0  0  0
    3.7500    3.8971    0.0000 N   0  0  0  0  0  0  0  0  0  0  0  0
    5.2500    3.8971    0.0000 C   0  0  0  0  0  0  0  0  0  0  0  0
    6.0000    2.5981    0.0000 C   0  0  0  0  0  0  0  0  0  0  0  0
    7.5000    2.5981    0.0000 N   0  0  0  0  0  0  0  0  0  0  0  0
    8.2500    3.8971    0.0000 C   0  0  0  0  0  0  0  0  0  0  0  0
    7.5000    5.1962    0.0000 C   0  0  0  0  0  0  0  0  0  0  0  0
    6.0000    5.1962    0.0000 N   0  0  0  0  0  0  0  0  0  0  0  0
    9.7500    3.8971    0.0000 C   0  0  0  0  0  0  0  0  0  0  0  0
   11.2500    3.8971    0.0000 N   0  0  0  0  0  0  0  0  0  0  0  0
  1  2  1  0
  2  3  1  0
  3  4  2  0
  4  5  1  0
  5  6  1  0
  6  7  2  0
  6  8  1  0
  5  9  2  0
  9 10  1  0
  9 11  1  0
 11 12  2  0
 12 13  1  0
 13 14  1  0
 14 15  2  0
 14 16  1  0
 16 17  1  0
 17 18  2  0
 18 19  1  0
 19 20  2  0
 20 21  1  0
 21 22  2  0
 20 23  1  0
 23 24  3  0
 12  3  1  0
 22 17  1  0
M  END
>  <Molecule>  (1) 
CHEMBL1983006

>  <Standard Type>  (1) 
Ki

>  <Standard Relation>  (1) 
>

>  <Standard Value>  (1) 
1584.89

>  <Standard Units>  (1) 
nM

>  <pChEMBL Value>  (1) 
nan

>  <Comment>  (1) 
inactive

>  <Compound Key>  (1) 
SID103904900

>  <Assay>  (1) 
CHEMBL1963742

>  <Assay Description>  (1) 
PUBCHEM_BIOASSAY: Navigating the Kinome. (Class of assay: other) Panel member name: JAK3

>  <BAO Format>  (1) 
assay format

>  <Target>  (1) 
CHEMBL2148

>  <Target Pref. Name>  (1) 
Tyrosine-protein kinase JAK3

>  <Target Organism>  (1) 
Homo sapiens

>  <Target Type>  (1) 
SINGLE PROTEIN

>  <Document>  (1) 
CHEMBL1201862

>  <Source>  (1) 
PubChem BioAssays

>  <Max Phase>  (1) 
0

>  <#Ro5 Violations>  (1) 
0

>  <Molecular Weight>  (1) 
347.72

>  <Ligand Efficiency BEI>  (1) 
nan

>  <Ligand Efficiency LE>  (1) 
nan

>  <Ligand Efficiency LLE>  (1) 
nan

>  <Ligand Efficiency SEI>  (1) 
nan

>  <ALogP>  (1) 
2.35

>  <Assay Organism>  (1) 
nan

>  <Assay Tissue ChEMBL ID>  (1) 
nan

>  <Assay Tissue Name>  (1) 
nan

>  <Assay Cell Type>  (1) 
nan

>  <Assay Subcellular Fraction>  (1) 
nan

>  <Organism Tax ID>  (1) 
9606

>  <BAO Format ID>  (1) 
BAO_0000019

>  <Published Type>  (1) 
nan

>  <Published Relation>  (1) 
nan

>  <Published Value>  (1) 
nan

>  <Published Units>  (1) 
nan

>  <Canonical Smiles>  (1) 
COc1cc(C(=O)O)c(Cl)cc1NC(=O)Nc2cnc(cn2)C#N

>  <Data Validity Comment>  (1) 
nan

>  <Document Journal>  (1) 
nan

>  <Document Year>  (1) 
nan

>  <SRC ID>  (1) 
7

>  <UO Units>  (1) 
UO_0000065

>  <Potential Duplicate>  (1) 
False

>  <Class>  (1) 
0

$$$$

     RDKit          2D

 28 30  0  0  0  0  0  0  0  0999 V2000
    1.7745   13.9550    0.0000 C   0  0  0  0  0  0  0  0  0  0  0  0
    1.4627   12.4878    0.0000 C   0  0  0  0  0  0  0  0  0  0  0  0
    0.0361   12.0242    0.0000 C   0  0  0  0  0  0  0  0  0  0  0  0
   -0.2758   10.5570    0.0000 N   0  0  0  0  0  0  0  0  0  0  0  0
   -1.7024   10.0935    0.0000 C   0  0  0  0  0  0  0  0  0  0  0  0
   -2.8171   11.0972    0.0000 O   0  0  0  0  0  0  0  0  0  0  0  0
   -2.0143    8.6263    0.0000 C   0  0  0  0  0  0  0  0  0  0  0  0
   -0.8995    7.6226    0.0000 C   0  0  0  0  0  0  0  0  0  0  0  0
   -1.2114    6.1554    0.0000 C   0  0  0  0  0  0  0  0  0  0  0  0
   -2.6380    5.6918    0.0000 C   0  0  0  0  0  0  0  0  0  0  0  0
   -2.9499    4.2246    0.0000 N   0  0  0  0  0  0  0  0  0  0  0  0
   -1.8351    3.2209    0.0000 C   0  0  0  0  0  0  0  0  0  0  0  0
   -0.4086    3.6844    0.0000 N   0  0  0  0  0  0  0  0  0  0  0  0
    0.7062    2.6807    0.0000 C   0  0  0  0  0  0  0  0  0  0  0  0
    2.1328    3.1443    0.0000 N   0  0  0  0  0  0  0  0  0  0  0  0
    2.4446    4.6115    0.0000 C   0  0  0  0  0  0  0  0  0  0  0  0
    3.8712    5.0750    0.0000 C   0  0  0  0  0  0  0  0  0  0  0  0
    5.2978    5.5385    0.0000 F   0  0  0  0  0  0  0  0  0  0  0  0
    3.4077    6.5016    0.0000 F   0  0  0  0  0  0  0  0  0  0  0  0
    4.3347    3.6484    0.0000 F   0  0  0  0  0  0  0  0  0  0  0  0
    0.3943    1.2135    0.0000 C   0  0  0  0  0  0  0  0  0  0  0  0
    1.2760    0.0000    0.0000 S   0  0  0  0  0  0  0  0  0  0  0  0
    0.3943   -1.2135    0.0000 C   0  0  0  0  0  0  0  0  0  0  0  0
   -1.0323   -0.7500    0.0000 C   0  0  0  0  0  0  0  0  0  0  0  0
   -1.0323    0.7500    0.0000 C   0  0  0  0  0  0  0  0  0  0  0  0
   -2.1470    1.7537    0.0000 N   0  0  0  0  0  0  0  0  0  0  0  0
   -3.7527    6.6955    0.0000 C   0  0  0  0  0  0  0  0  0  0  0  0
   -3.4408    8.1628    0.0000 C   0  0  0  0  0  0  0  0  0  0  0  0
  1  2  1  0
  2  3  1  0
  3  4  1  0
  4  5  1  0
  5  6  2  0
  5  7  1  0
  7  8  2  0
  8  9  1  0
  9 10  2  0
 10 11  1  0
 11 12  1  0
 12 13  2  0
 13 14  1  0
 14 15  1  0
 15 16  1  0
 16 17  1  0
 17 18  1  0
 17 19  1  0
 17 20  1  0
 14 21  2  0
 21 22  1  0
 22 23  1  0
 23 24  2  0
 24 25  1  0
 25 26  2  0
 10 27  1  0
 27 28  2  0
 28  7  1  0
 26 12  1  0
 25 21  1  0
M  END
>  <Molecule>  (2) 
CHEMBL2007559

>  <Standard Type>  (2) 
Ki

>  <Standard Relation>  (2) 
>

>  <Standard Value>  (2) 
5011.87

>  <Standard Units>  (2) 
nM

>  <pChEMBL Value>  (2) 
nan

>  <Comment>  (2) 
inactive

>  <Compound Key>  (2) 
SID103905005

>  <Assay>  (2) 
CHEMBL1963742

>  <Assay Description>  (2) 
PUBCHEM_BIOASSAY: Navigating the Kinome. (Class of assay: other) Panel member name: JAK3

>  <BAO Format>  (2) 
assay format

>  <Target>  (2) 
CHEMBL2148

>  <Target Pref. Name>  (2) 
Tyrosine-protein kinase JAK3

>  <Target Organism>  (2) 
Homo sapiens

>  <Target Type>  (2) 
SINGLE PROTEIN

>  <Document>  (2) 
CHEMBL1201862

>  <Source>  (2) 
PubChem BioAssays

>  <Max Phase>  (2) 
0

>  <#Ro5 Violations>  (2) 
0

>  <Molecular Weight>  (2) 
409.44

>  <Ligand Efficiency BEI>  (2) 
nan

>  <Ligand Efficiency LE>  (2) 
nan

>  <Ligand Efficiency LLE>  (2) 
nan

>  <Ligand Efficiency SEI>  (2) 
nan

>  <ALogP>  (2) 
4.55

>  <Assay Organism>  (2) 
nan

>  <Assay Tissue ChEMBL ID>  (2) 
nan

>  <Assay Tissue Name>  (2) 
nan

>  <Assay Cell Type>  (2) 
nan

>  <Assay Subcellular Fraction>  (2) 
nan

>  <Organism Tax ID>  (2) 
9606

>  <BAO Format ID>  (2) 
BAO_0000019

>  <Published Type>  (2) 
nan

>  <Published Relation>  (2) 
nan

>  <Published Value>  (2) 
nan

>  <Published Units>  (2) 
nan

>  <Canonical Smiles>  (2) 
CCCNC(=O)c1ccc(Nc2nc(NCC(F)(F)F)c3sccc3n2)cc1

>  <Data Validity Comment>  (2) 
nan

>  <Document Journal>  (2) 
nan

>  <Document Year>  (2) 
nan

>  <SRC ID>  (2) 
7

>  <UO Units>  (2) 
UO_0000065

>  <Potential Duplicate>  (2) 
False

>  <Class>  (2) 
0

$$$$

     RDKit          2D

 33 37  0  0  0  0  0  0  0  0999 V2000
   -9.7730   -5.5068    0.0000 C   0  0  0  0  0  0  0  0  0  0  0  0
   -8.6583   -6.5105    0.0000 N   0  0  0  0  0  0  0  0  0  0  0  0
   -8.9702   -7.9777    0.0000 C   0  0  0  0  0  0  0  0  0  0  0  0
   -7.2317   -6.0469    0.0000 C   0  0  0  0  0  0  0  0  0  0  0  0
   -6.9199   -4.5797    0.0000 C   0  0  0  0  0  0  0  0  0  0  0  0
   -5.4933   -4.1162    0.0000 C   0  0  0  0  0  0  0  0  0  0  0  0
   -4.3786   -5.1199    0.0000 C   0  0  0  0  0  0  0  0  0  0  0  0
   -4.6904   -6.5871    0.0000 C   0  0  0  0  0  0  0  0  0  0  0  0
   -6.1170   -7.0506    0.0000 C   0  0  0  0  0  0  0  0  0  0  0  0
   -2.9520   -4.6564    0.0000 C   0  0  0  0  0  0  0  0  0  0  0  0
   -1.8373   -5.6601    0.0000 O   0  0  0  0  0  0  0  0  0  0  0  0
   -2.6401   -3.1891    0.0000 N   0  0  0  0  0  0  0  0  0  0  0  0
   -1.2135   -2.7256    0.0000 C   0  0  0  0  0  0  0  0  0  0  0  0
    0.0000   -3.6073    0.0000 N   0  0  0  0  0  0  0  0  0  0  0  0
    1.2135   -2.7256    0.0000 N   0  0  0  0  0  0  0  0  0  0  0  0
    0.7500   -1.2990    0.0000 C   0  0  0  0  0  0  0  0  0  0  0  0
    1.5000    0.0000    0.0000 C   0  0  0  0  0  0  0  0  0  0  0  0
    0.7500    1.2990    0.0000 C   0  0  0  0  0  0  0  0  0  0  0  0
   -0.7500    1.2990    0.0000 C   0  0  0  0  0  0  0  0  0  0  0  0
   -1.5000    0.0000    0.0000 C   0  0  0  0  0  0  0  0  0  0  0  0
   -0.7500   -1.2990    0.0000 C   0  0  0  0  0  0  0  0  0  0  0  0
   -1.5000    2.5981    0.0000 C   0  0  0  0  0  0  0  0  0  0  0  0
   -2.9918    2.7549    0.0000 C   0  0  0  0  0  0  0  0  0  0  0  0
   -3.3037    4.2221    0.0000 N   0  0  0  0  0  0  0  0  0  0  0  0
   -4.6740    4.8322    0.0000 C   0  0  0  0  0  0  0  0  0  0  0  0
   -4.8308    6.3240    0.0000 C   0  0  0  0  0  0  0  0  0  0  0  0
   -3.6172    7.2057    0.0000 C   0  0  0  0  0  0  0  0  0  0  0  0
   -3.7740    8.6974    0.0000 C   0  0  0  0  0  0  0  0  0  0  0  0
   -5.1443    9.3075    0.0000 C   0  0  0  0  0  0  0  0  0  0  0  0
   -6.3579    8.4259    0.0000 C   0  0  0  0  0  0  0  0  0  0  0  0
   -6.2011    6.9341    0.0000 C   0  0  0  0  0  0  0  0  0  0  0  0
   -2.0046    4.9721    0.0000 N   0  0  0  0  0  0  0  0  0  0  0  0
   -0.8899    3.9684    0.0000 N   0  0  0  0  0  0  0  0  0  0  0  0
  1  2  1  0
  2  3  1  0
  2  4  1  0
  4  5  2  0
  5  6  1  0
  6  7  2  0
  7  8  1  0
  8  9  2  0
  7 10  1  0
 10 11  2  0
 10 12  1  0
 12 13  1  0
 13 14  2  0
 14 15  1  0
 15 16  1  0
 16 17  2  0
 17 18  1  0
 18 19  2  0
 19 20  1  0
 20 21  2  0
 19 22  1  0
 22 23  2  0
 23 24  1  0
 24 25  1  0
 25 26  1  0
 26 27  2  0
 27 28  1  0
 28 29  2  0
 29 30  1  0
 30 31  2  0
 24 32  1  0
 32 33  2  0
  9  4  1  0
 21 13  1  0
 21 16  1  0
 33 22  1  0
 31 26  1  0
M  END
>  <Molecule>  (3) 
CHEMBL1992363

>  <Standard Type>  (3) 
Ki

>  <Standard Relation>  (3) 
=

>  <Standard Value>  (3) 
501.19

>  <Standard Units>  (3) 
nM

>  <pChEMBL Value>  (3) 
6.3

>  <Comment>  (3) 
active

>  <Compound Key>  (3) 
SID103904544

>  <Assay>  (3) 
CHEMBL1963742

>  <Assay Description>  (3) 
PUBCHEM_BIOASSAY: Navigating the Kinome. (Class of assay: other) Panel member name: JAK3

>  <BAO Format>  (3) 
assay format

>  <Target>  (3) 
CHEMBL2148

>  <Target Pref. Name>  (3) 
Tyrosine-protein kinase JAK3

>  <Target Organism>  (3) 
Homo sapiens

>  <Target Type>  (3) 
SINGLE PROTEIN

>  <Document>  (3) 
CHEMBL1201862

>  <Source>  (3) 
PubChem BioAssays

>  <Max Phase>  (3) 
0

>  <#Ro5 Violations>  (3) 
0

>  <Molecular Weight>  (3) 
437.51

>  <Ligand Efficiency BEI>  (3) 
nan

>  <Ligand Efficiency LE>  (3) 
nan

>  <Ligand Efficiency LLE>  (3) 
nan

>  <Ligand Efficiency SEI>  (3) 
nan

>  <ALogP>  (3) 
4.19

>  <Assay Organism>  (3) 
nan

>  <Assay Tissue ChEMBL ID>  (3) 
nan

>  <Assay Tissue Name>  (3) 
nan

>  <Assay Cell Type>  (3) 
nan

>  <Assay Subcellular Fraction>  (3) 
nan

>  <Organism Tax ID>  (3) 
9606

>  <BAO Format ID>  (3) 
BAO_0000019

>  <Published Type>  (3) 
nan

>  <Published Relation>  (3) 
nan

>  <Published Value>  (3) 
nan

>  <Published Units>  (3) 
nan

>  <Canonical Smiles>  (3) 
CN(C)c1ccc(cc1)C(=O)Nc2n[nH]c3ccc(cc23)c4cn(Cc5ccccc5)nn4

>  <Data Validity Comment>  (3) 
nan

>  <Document Journal>  (3) 
nan

>  <Document Year>  (3) 
nan

>  <SRC ID>  (3) 
7

>  <UO Units>  (3) 
UO_0000065

>  <Potential Duplicate>  (3) 
False

>  <Class>  (3) 
1

$$$$

     RDKit          2D

 23 25  0  0  0  0  0  0  0  0999 V2000
   -1.3442   -0.7172    0.0000 C   0  0  0  0  0  0  0  0  0  0  0  0
   -2.7707   -1.1807    0.0000 C   0  0  0  0  0  0  0  0  0  0  0  0
   -3.0826   -2.6480    0.0000 C   0  0  0  0  0  0  0  0  0  0  0  0
   -4.5092   -3.1115    0.0000 C   0  0  0  0  0  0  0  0  0  0  0  0
   -5.6239   -2.1078    0.0000 N   0  0  0  0  0  0  0  0  0  0  0  0
   -5.3120   -0.6406    0.0000 C   0  0  0  0  0  0  0  0  0  0  0  0
   -3.8855   -0.1771    0.0000 C   0  0  0  0  0  0  0  0  0  0  0  0
   -3.5736    1.2902    0.0000 N   0  0  0  0  0  0  0  0  0  0  0  0
   -4.6883    2.2939    0.0000 C   0  0  0  0  0  0  0  0  0  0  0  0
   -2.1470    1.7537    0.0000 C   0  0  0  0  0  0  0  0  0  0  0  0
   -1.0323    0.7500    0.0000 N   0  0  0  0  0  0  0  0  0  0  0  0
    0.3943    1.2135    0.0000 C   0  0  0  0  0  0  0  0  0  0  0  0
    0.7062    2.6807    0.0000 N   0  0  0  0  0  0  0  0  0  0  0  0
   -0.4086    3.6844    0.0000 C   0  0  0  0  0  0  0  0  0  0  0  0
   -0.4086    5.1844    0.0000 N   0  0  0  0  0  0  0  0  0  0  0  0
   -1.8351    5.6480    0.0000 C   0  0  0  0  0  0  0  0  0  0  0  0
   -2.7168    4.4344    0.0000 C   0  0  0  0  0  0  0  0  0  0  0  0
   -1.8351    3.2209    0.0000 C   0  0  0  0  0  0  0  0  0  0  0  0
   -7.0505   -2.5713    0.0000 C   0  0  0  0  0  0  0  0  0  0  0  0
   -7.3624   -4.0385    0.0000 O   0  0  0  0  0  0  0  0  0  0  0  0
   -8.1652   -1.5676    0.0000 C   0  0  0  0  0  0  0  0  0  0  0  0
   -9.5918   -2.0312    0.0000 C   0  0  0  0  0  0  0  0  0  0  0  0
  -11.0184   -2.4947    0.0000 N   0  0  0  0  0  0  0  0  0  0  0  0
  1  2  1  0
  2  3  1  0
  3  4  1  0
  4  5  1  0
  5  6  1  0
  6  7  1  0
  7  8  1  0
  8  9  1  0
  8 10  1  0
 10 11  2  0
 11 12  1  0
 12 13  2  0
 13 14  1  0
 14 15  1  0
 15 16  1  0
 16 17  2  0
 17 18  1  0
  5 19  1  0
 19 20  2  0
 19 21  1  0
 21 22  1  0
 22 23  3  0
  7  2  1  0
 18 10  1  0
 18 14  2  0
M  END
>  <Molecule>  (4) 
CHEMBL234085

>  <Standard Type>  (4) 
Ki

>  <Standard Relation>  (4) 
=

>  <Standard Value>  (4) 
5.012

>  <Standard Units>  (4) 
nM

>  <pChEMBL Value>  (4) 
8.3

>  <Comment>  (4) 
active

>  <Compound Key>  (4) 
SID103905419

>  <Assay>  (4) 
CHEMBL1963742

>  <Assay Description>  (4) 
PUBCHEM_BIOASSAY: Navigating the Kinome. (Class of assay: other) Panel member name: JAK3

>  <BAO Format>  (4) 
assay format

>  <Target>  (4) 
CHEMBL2148

>  <Target Pref. Name>  (4) 
Tyrosine-protein kinase JAK3

>  <Target Organism>  (4) 
Homo sapiens

>  <Target Type>  (4) 
SINGLE PROTEIN

>  <Document>  (4) 
CHEMBL1201862

>  <Source>  (4) 
PubChem BioAssays

>  <Max Phase>  (4) 
0

>  <#Ro5 Violations>  (4) 
0

>  <Molecular Weight>  (4) 
312.38

>  <Ligand Efficiency BEI>  (4) 
nan

>  <Ligand Efficiency LE>  (4) 
nan

>  <Ligand Efficiency LLE>  (4) 
nan

>  <Ligand Efficiency SEI>  (4) 
nan

>  <ALogP>  (4) 
1.54

>  <Assay Organism>  (4) 
nan

>  <Assay Tissue ChEMBL ID>  (4) 
nan

>  <Assay Tissue Name>  (4) 
nan

>  <Assay Cell Type>  (4) 
nan

>  <Assay Subcellular Fraction>  (4) 
nan

>  <Organism Tax ID>  (4) 
9606

>  <BAO Format ID>  (4) 
BAO_0000019

>  <Published Type>  (4) 
nan

>  <Published Relation>  (4) 
nan

>  <Published Value>  (4) 
nan

>  <Published Units>  (4) 
nan

>  <Canonical Smiles>  (4) 
CC1CCN(CC1N(C)c2ncnc3[nH]ccc23)C(=O)CC#N

>  <Data Validity Comment>  (4) 
nan

>  <Document Journal>  (4) 
nan

>  <Document Year>  (4) 
nan

>  <SRC ID>  (4) 
7

>  <UO Units>  (4) 
UO_0000065

>  <Potential Duplicate>  (4) 
False

>  <Class>  (4) 
1

$$$$

     RDKit          2D

 23 26  0  0  0  0  0  0  0  0999 V2000
   -6.6572   -5.7276    0.0000 N   0  0  0  0  0  0  0  0  0  0  0  0
   -6.0471   -4.3573    0.0000 C   0  0  0  0  0  0  0  0  0  0  0  0
   -4.5798   -4.0454    0.0000 O   0  0  0  0  0  0  0  0  0  0  0  0
   -4.4231   -2.5537    0.0000 C   0  0  0  0  0  0  0  0  0  0  0  0
   -5.7934   -1.9435    0.0000 N   0  0  0  0  0  0  0  0  0  0  0  0
   -6.7971   -3.0583    0.0000 N   0  0  0  0  0  0  0  0  0  0  0  0
   -3.1240   -1.8037    0.0000 C   0  0  0  0  0  0  0  0  0  0  0  0
   -1.7537   -2.4138    0.0000 C   0  0  0  0  0  0  0  0  0  0  0  0
   -0.7500   -1.2990    0.0000 C   0  0  0  0  0  0  0  0  0  0  0  0
    0.7500   -1.2990    0.0000 C   0  0  0  0  0  0  0  0  0  0  0  0
    1.5000   -2.5981    0.0000 O   0  0  0  0  0  0  0  0  0  0  0  0
    3.0000   -2.5981    0.0000 C   0  0  0  0  0  0  0  0  0  0  0  0
    3.7500   -3.8971    0.0000 C   0  0  0  0  0  0  0  0  0  0  0  0
    5.2500   -3.8971    0.0000 C   0  0  0  0  0  0  0  0  0  0  0  0
    6.0000   -2.5981    0.0000 C   0  0  0  0  0  0  0  0  0  0  0  0
    7.5000   -2.5981    0.0000 Cl  0  0  0  0  0  0  0  0  0  0  0  0
    5.2500   -1.2990    0.0000 C   0  0  0  0  0  0  0  0  0  0  0  0
    3.7500   -1.2990    0.0000 C   0  0  0  0  0  0  0  0  0  0  0  0
    1.5000    0.0000    0.0000 C   0  0  0  0  0  0  0  0  0  0  0  0
    0.7500    1.2990    0.0000 N   0  0  0  0  0  0  0  0  0  0  0  0
   -0.7500    1.2990    0.0000 C   0  0  0  0  0  0  0  0  0  0  0  0
   -1.5000    0.0000    0.0000 C   0  0  0  0  0  0  0  0  0  0  0  0
   -2.9672   -0.3119    0.0000 S   0  0  0  0  0  0  0  0  0  0  0  0
  1  2  1  0
  2  3  1  0
  3  4  1  0
  4  5  2  0
  5  6  1  0
  4  7  1  0
  7  8  2  0
  8  9  1  0
  9 10  2  0
 10 11  1  0
 11 12  1  0
 12 13  2  0
 13 14  1  0
 14 15  2  0
 15 16  1  0
 15 17  1  0
 17 18  2  0
 10 19  1  0
 19 20  2  0
 20 21  1  0
 21 22  2  0
 22 23  1  0
  6  2  2  0
 23  7  1  0
 22  9  1  0
 18 12  1  0
M  END
>  <Molecule>  (5) 
CHEMBL1994830

>  <Standard Type>  (5) 
Ki

>  <Standard Relation>  (5) 
>

>  <Standard Value>  (5) 
1584.89

>  <Standard Units>  (5) 
nM

>  <pChEMBL Value>  (5) 
nan

>  <Comment>  (5) 
inactive

>  <Compound Key>  (5) 
SID103905372

>  <Assay>  (5) 
CHEMBL1963742

>  <Assay Description>  (5) 
PUBCHEM_BIOASSAY: Navigating the Kinome. (Class of assay: other) Panel member name: JAK3

>  <BAO Format>  (5) 
assay format

>  <Target>  (5) 
CHEMBL2148

>  <Target Pref. Name>  (5) 
Tyrosine-protein kinase JAK3

>  <Target Organism>  (5) 
Homo sapiens

>  <Target Type>  (5) 
SINGLE PROTEIN

>  <Document>  (5) 
CHEMBL1201862

>  <Source>  (5) 
PubChem BioAssays

>  <Max Phase>  (5) 
0

>  <#Ro5 Violations>  (5) 
0

>  <Molecular Weight>  (5) 
344.78

>  <Ligand Efficiency BEI>  (5) 
nan

>  <Ligand Efficiency LE>  (5) 
nan

>  <Ligand Efficiency LLE>  (5) 
nan

>  <Ligand Efficiency SEI>  (5) 
nan

>  <ALogP>  (5) 
4.37

>  <Assay Organism>  (5) 
nan

>  <Assay Tissue ChEMBL ID>  (5) 
nan

>  <Assay Tissue Name>  (5) 
nan

>  <Assay Cell Type>  (5) 
nan

>  <Assay Subcellular Fraction>  (5) 
nan

>  <Organism Tax ID>  (5) 
9606

>  <BAO Format ID>  (5) 
BAO_0000019

>  <Published Type>  (5) 
nan

>  <Published Relation>  (5) 
nan

>  <Published Value>  (5) 
nan

>  <Published Units>  (5) 
nan

>  <Canonical Smiles>  (5) 
Nc1oc(nn1)c2cc3c(Oc4ccc(Cl)cc4)cncc3s2

>  <Data Validity Comment>  (5) 
nan

>  <Document Journal>  (5) 
nan

>  <Document Year>  (5) 
nan

>  <SRC ID>  (5) 
7

>  <UO Units>  (5) 
UO_0000065

>  <Potential Duplicate>  (5) 
False

>  <Class>  (5) 
0

$$$$

     RDKit          2D

 32 35  0  0  0  0  0  0  0  0999 V2000
   -3.6304   -5.2500    0.0000 C   0  0  0  0  0  0  0  0  0  0  0  0
   -3.6304   -3.7500    0.0000 N   0  0  0  0  0  0  0  0  0  0  0  0
   -2.3313   -3.0000    0.0000 C   0  0  0  0  0  0  0  0  0  0  0  0
   -1.0323   -3.7500    0.0000 O   0  0  0  0  0  0  0  0  0  0  0  0
   -2.3313   -1.5000    0.0000 C   0  0  0  0  0  0  0  0  0  0  0  0
   -3.6304   -0.7500    0.0000 C   0  0  0  0  0  0  0  0  0  0  0  0
   -3.6304    0.7500    0.0000 N   0  0  0  0  0  0  0  0  0  0  0  0
   -2.3313    1.5000    0.0000 C   0  0  0  0  0  0  0  0  0  0  0  0
   -2.3313    3.0000    0.0000 N   0  0  0  0  0  0  0  0  0  0  0  0
   -1.0323    0.7500    0.0000 C   0  0  0  0  0  0  0  0  0  0  0  0
    0.3943    1.2135    0.0000 C   0  0  0  0  0  0  0  0  0  0  0  0
    1.2760    0.0000    0.0000 C   0  0  0  0  0  0  0  0  0  0  0  0
    0.3943   -1.2135    0.0000 S   0  0  0  0  0  0  0  0  0  0  0  0
   -1.0323   -0.7500    0.0000 C   0  0  0  0  0  0  0  0  0  0  0  0
    0.8578    2.6401    0.0000 C   0  0  0  0  0  0  0  0  0  0  0  0
    2.3250    2.9520    0.0000 C   0  0  0  0  0  0  0  0  0  0  0  0
    2.7886    4.3786    0.0000 C   0  0  0  0  0  0  0  0  0  0  0  0
    1.7849    5.4933    0.0000 C   0  0  0  0  0  0  0  0  0  0  0  0
    2.2484    6.9199    0.0000 N   0  0  0  0  0  0  0  0  0  0  0  0
    3.7156    7.2317    0.0000 C   0  0  0  0  0  0  0  0  0  0  0  0
    4.7193    6.1170    0.0000 O   0  0  0  0  0  0  0  0  0  0  0  0
    4.1791    8.6583    0.0000 N   0  0  0  0  0  0  0  0  0  0  0  0
    5.6464    8.9702    0.0000 C   0  0  0  0  0  0  0  0  0  0  0  0
    6.6501    7.8555    0.0000 C   0  0  0  0  0  0  0  0  0  0  0  0
    8.1173    8.1673    0.0000 C   0  0  0  0  0  0  0  0  0  0  0  0
    9.1210    7.0526    0.0000 C   0  0  0  0  0  0  0  0  0  0  0  0
    8.5808    9.5939    0.0000 C   0  0  0  0  0  0  0  0  0  0  0  0
    7.5771   10.7086    0.0000 C   0  0  0  0  0  0  0  0  0  0  0  0
    6.1099   10.3968    0.0000 C   0  0  0  0  0  0  0  0  0  0  0  0
    5.1062   11.5115    0.0000 F   0  0  0  0  0  0  0  0  0  0  0  0
    0.3177    5.1814    0.0000 C   0  0  0  0  0  0  0  0  0  0  0  0
   -0.1459    3.7548    0.0000 C   0  0  0  0  0  0  0  0  0  0  0  0
  1  2  1  0
  2  3  1  0
  3  4  2  0
  3  5  1  0
  5  6  2  0
  6  7  1  0
  7  8  2  0
  8  9  1  0
  8 10  1  0
 10 11  1  0
 11 12  2  0
 12 13  1  0
 13 14  1  0
 11 15  1  0
 15 16  2  0
 16 17  1  0
 17 18  2  0
 18 19  1  0
 19 20  1  0
 20 21  2  0
 20 22  1  0
 22 23  1  0
 23 24  2  0
 24 25  1  0
 25 26  1  0
 25 27  2  0
 27 28  1  0
 28 29  2  0
 29 30  1  0
 18 31  1  0
 31 32  2  0
 14  5  1  0
 14 10  2  0
 32 15  1  0
 29 23  1  0
M  END
>  <Molecule>  (6) 
CHEMBL2005631

>  <Standard Type>  (6) 
Ki

>  <Standard Relation>  (6) 
=

>  <Standard Value>  (6) 
316.23

>  <Standard Units>  (6) 
nM

>  <pChEMBL Value>  (6) 
6.5

>  <Comment>  (6) 
active

>  <Compound Key>  (6) 
SID103904310

>  <Assay>  (6) 
CHEMBL1963742

>  <Assay Description>  (6) 
PUBCHEM_BIOASSAY: Navigating the Kinome. (Class of assay: other) Panel member name: JAK3

>  <BAO Format>  (6) 
assay format

>  <Target>  (6) 
CHEMBL2148

>  <Target Pref. Name>  (6) 
Tyrosine-protein kinase JAK3

>  <Target Organism>  (6) 
Homo sapiens

>  <Target Type>  (6) 
SINGLE PROTEIN

>  <Document>  (6) 
CHEMBL1201862

>  <Source>  (6) 
PubChem BioAssays

>  <Max Phase>  (6) 
0

>  <#Ro5 Violations>  (6) 
0

>  <Molecular Weight>  (6) 
449.51

>  <Ligand Efficiency BEI>  (6) 
nan

>  <Ligand Efficiency LE>  (6) 
nan

>  <Ligand Efficiency LLE>  (6) 
nan

>  <Ligand Efficiency SEI>  (6) 
nan

>  <ALogP>  (6) 
5.0

>  <Assay Organism>  (6) 
nan

>  <Assay Tissue ChEMBL ID>  (6) 
nan

>  <Assay Tissue Name>  (6) 
nan

>  <Assay Cell Type>  (6) 
nan

>  <Assay Subcellular Fraction>  (6) 
nan

>  <Organism Tax ID>  (6) 
9606

>  <BAO Format ID>  (6) 
BAO_0000019

>  <Published Type>  (6) 
nan

>  <Published Relation>  (6) 
nan

>  <Published Value>  (6) 
nan

>  <Published Units>  (6) 
nan

>  <Canonical Smiles>  (6) 
CNC(=O)c1cnc(N)c2c(csc12)c3ccc(NC(=O)Nc4cc(C)ccc4F)cc3

>  <Data Validity Comment>  (6) 
nan

>  <Document Journal>  (6) 
nan

>  <Document Year>  (6) 
nan

>  <SRC ID>  (6) 
7

>  <UO Units>  (6) 
UO_0000065

>  <Potential Duplicate>  (6) 
False

>  <Class>  (6) 
1

$$$$

     RDKit          2D

 24 27  0  0  0  0  0  0  0  0999 V2000
   -2.1388   -1.0012    0.0000 C   0  0  0  0  0  0  0  0  0  0  0  0
   -3.6388   -1.0012    0.0000 C   0  0  0  0  0  0  0  0  0  0  0  0
   -4.3888   -2.3002    0.0000 C   0  0  0  0  0  0  0  0  0  0  0  0
   -5.8888   -2.3002    0.0000 C   0  0  0  0  0  0  0  0  0  0  0  0
   -6.6388   -1.0012    0.0000 N   0  0  0  0  0  0  0  0  0  0  0  0
   -5.8888    0.2979    0.0000 C   0  0  0  0  0  0  0  0  0  0  0  0
   -4.3888    0.2979    0.0000 C   0  0  0  0  0  0  0  0  0  0  0  0
   -3.6388    1.5969    0.0000 C   0  0  0  0  0  0  0  0  0  0  0  0
   -4.2489    2.9672    0.0000 N   0  0  0  0  0  0  0  0  0  0  0  0
   -3.1342    3.9709    0.0000 C   0  0  0  0  0  0  0  0  0  0  0  0
   -1.8351    3.2209    0.0000 C   0  0  0  0  0  0  0  0  0  0  0  0
   -0.4086    3.6844    0.0000 C   0  0  0  0  0  0  0  0  0  0  0  0
    0.7062    2.6807    0.0000 N   0  0  0  0  0  0  0  0  0  0  0  0
    0.3943    1.2135    0.0000 C   0  0  0  0  0  0  0  0  0  0  0  0
    1.2760    0.0000    0.0000 N   0  0  0  0  0  0  0  0  0  0  0  0
    0.3943   -1.2135    0.0000 C   0  0  0  0  0  0  0  0  0  0  0  0
   -1.0323   -0.7500    0.0000 C   0  0  0  0  0  0  0  0  0  0  0  0
   -1.0323    0.7500    0.0000 C   0  0  0  0  0  0  0  0  0  0  0  0
   -2.1470    1.7537    0.0000 N   0  0  0  0  0  0  0  0  0  0  0  0
   -8.1388   -1.0012    0.0000 C   0  0  0  0  0  0  0  0  0  0  0  0
   -8.8888   -2.3002    0.0000 O   0  0  0  0  0  0  0  0  0  0  0  0
   -8.8888    0.2979    0.0000 C   0  0  0  0  0  0  0  0  0  0  0  0
  -10.3888    0.2979    0.0000 C   0  0  0  0  0  0  0  0  0  0  0  0
  -11.8888    0.2979    0.0000 N   0  0  0  0  0  0  0  0  0  0  0  0
  1  2  1  0
  2  3  1  0
  3  4  1  0
  4  5  1  0
  5  6  1  0
  6  7  1  0
  7  8  1  0
  8  9  2  0
  9 10  1  0
 10 11  2  0
 11 12  1  0
 12 13  2  0
 13 14  1  0
 14 15  1  0
 15 16  1  0
 16 17  2  0
 17 18  1  0
 18 19  1  0
  5 20  1  0
 20 21  2  0
 20 22  1  0
 22 23  1  0
 23 24  3  0
  7  2  1  0
 19  8  1  0
 19 11  1  0
 18 14  2  0
M  END
>  <Molecule>  (7) 
CHEMBL1966175

>  <Standard Type>  (7) 
Ki

>  <Standard Relation>  (7) 
=

>  <Standard Value>  (7) 
3.162

>  <Standard Units>  (7) 
nM

>  <pChEMBL Value>  (7) 
8.5

>  <Comment>  (7) 
active

>  <Compound Key>  (7) 
SID103904918

>  <Assay>  (7) 
CHEMBL1963742

>  <Assay Description>  (7) 
PUBCHEM_BIOASSAY: Navigating the Kinome. (Class of assay: other) Panel member name: JAK3

>  <BAO Format>  (7) 
assay format

>  <Target>  (7) 
CHEMBL2148

>  <Target Pref. Name>  (7) 
Tyrosine-protein kinase JAK3

>  <Target Organism>  (7) 
Homo sapiens

>  <Target Type>  (7) 
SINGLE PROTEIN

>  <Document>  (7) 
CHEMBL1201862

>  <Source>  (7) 
PubChem BioAssays

>  <Max Phase>  (7) 
0

>  <#Ro5 Violations>  (7) 
0

>  <Molecular Weight>  (7) 
322.37

>  <Ligand Efficiency BEI>  (7) 
nan

>  <Ligand Efficiency LE>  (7) 
nan

>  <Ligand Efficiency LLE>  (7) 
nan

>  <Ligand Efficiency SEI>  (7) 
nan

>  <ALogP>  (7) 
2.08

>  <Assay Organism>  (7) 
nan

>  <Assay Tissue ChEMBL ID>  (7) 
nan

>  <Assay Tissue Name>  (7) 
nan

>  <Assay Cell Type>  (7) 
nan

>  <Assay Subcellular Fraction>  (7) 
nan

>  <Organism Tax ID>  (7) 
9606

>  <BAO Format ID>  (7) 
BAO_0000019

>  <Published Type>  (7) 
nan

>  <Published Relation>  (7) 
nan

>  <Published Value>  (7) 
nan

>  <Published Units>  (7) 
nan

>  <Canonical Smiles>  (7) 
CC1CCN(CC1c2ncc3cnc4[nH]ccc4n23)C(=O)CC#N

>  <Data Validity Comment>  (7) 
nan

>  <Document Journal>  (7) 
nan

>  <Document Year>  (7) 
nan

>  <SRC ID>  (7) 
7

>  <UO Units>  (7) 
UO_0000065

>  <Potential Duplicate>  (7) 
False

>  <Class>  (7) 
1

$$$$

     RDKit          2D

 25 28  0  0  0  0  0  0  0  0999 V2000
   -0.0000   -5.1073    0.0000 O   0  0  0  0  0  0  0  0  0  0  0  0
   -0.0000   -3.6073    0.0000 C   0  0  0  0  0  0  0  0  0  0  0  0
    1.2135   -2.7256    0.0000 N   0  0  0  0  0  0  0  0  0  0  0  0
    0.7500   -1.2990    0.0000 C   0  0  0  0  0  0  0  0  0  0  0  0
    1.5000    0.0000    0.0000 C   0  0  0  0  0  0  0  0  0  0  0  0
    0.7500    1.2990    0.0000 C   0  0  0  0  0  0  0  0  0  0  0  0
   -0.7500    1.2990    0.0000 C   0  0  0  0  0  0  0  0  0  0  0  0
   -1.5000    0.0000    0.0000 C   0  0  0  0  0  0  0  0  0  0  0  0
   -0.7500   -1.2990    0.0000 C   0  0  0  0  0  0  0  0  0  0  0  0
   -1.2135   -2.7256    0.0000 C   0  0  0  0  0  0  0  0  0  0  0  0
   -2.6401   -3.1891    0.0000 C   0  0  0  0  0  0  0  0  0  0  0  0
   -3.7548   -2.1855    0.0000 C   0  0  0  0  0  0  0  0  0  0  0  0
   -5.1814   -2.6490    0.0000 C   0  0  0  0  0  0  0  0  0  0  0  0
   -5.4933   -4.1162    0.0000 C   0  0  0  0  0  0  0  0  0  0  0  0
   -6.9199   -4.5797    0.0000 C   0  0  0  0  0  0  0  0  0  0  0  0
   -8.0346   -3.5760    0.0000 N   0  0  0  0  0  0  0  0  0  0  0  0
   -7.7227   -2.1088    0.0000 C   0  0  0  0  0  0  0  0  0  0  0  0
   -8.8374   -1.1051    0.0000 C   0  0  0  0  0  0  0  0  0  0  0  0
  -10.2640   -1.5686    0.0000 O   0  0  0  0  0  0  0  0  0  0  0  0
  -10.5759   -3.0359    0.0000 C   0  0  0  0  0  0  0  0  0  0  0  0
   -9.4612   -4.0396    0.0000 C   0  0  0  0  0  0  0  0  0  0  0  0
   -4.3786   -5.1199    0.0000 C   0  0  0  0  0  0  0  0  0  0  0  0
   -2.9520   -4.6564    0.0000 N   0  0  0  0  0  0  0  0  0  0  0  0
   -1.5000    2.5981    0.0000 C   0  0  0  0  0  0  0  0  0  0  0  0
   -2.2500    3.8971    0.0000 N   0  0  0  0  0  0  0  0  0  0  0  0
  1  2  1  0
  2  3  1  0
  3  4  1  0
  4  5  2  0
  5  6  1  0
  6  7  2  0
  7  8  1  0
  8  9  2  0
  9 10  1  0
 10 11  1  0
 11 12  2  0
 12 13  1  0
 13 14  2  0
 14 15  1  0
 15 16  1  0
 16 17  1  0
 17 18  1  0
 18 19  1  0
 19 20  1  0
 20 21  1  0
 14 22  1  0
 22 23  2  0
  7 24  1  0
 24 25  3  0
 10  2  2  0
  9  4  1  0
 23 11  1  0
 21 16  1  0
M  END
>  <Molecule>  (8) 
CHEMBL1969664

>  <Standard Type>  (8) 
Ki

>  <Standard Relation>  (8) 
>

>  <Standard Value>  (8) 
3981.07

>  <Standard Units>  (8) 
nM

>  <pChEMBL Value>  (8) 
nan

>  <Comment>  (8) 
inactive

>  <Compound Key>  (8) 
SID103905163

>  <Assay>  (8) 
CHEMBL1963742

>  <Assay Description>  (8) 
PUBCHEM_BIOASSAY: Navigating the Kinome. (Class of assay: other) Panel member name: JAK3

>  <BAO Format>  (8) 
assay format

>  <Target>  (8) 
CHEMBL2148

>  <Target Pref. Name>  (8) 
Tyrosine-protein kinase JAK3

>  <Target Organism>  (8) 
Homo sapiens

>  <Target Type>  (8) 
SINGLE PROTEIN

>  <Document>  (8) 
CHEMBL1201862

>  <Source>  (8) 
PubChem BioAssays

>  <Max Phase>  (8) 
1

>  <#Ro5 Violations>  (8) 
0

>  <Molecular Weight>  (8) 
334.38

>  <Ligand Efficiency BEI>  (8) 
nan

>  <Ligand Efficiency LE>  (8) 
nan

>  <Ligand Efficiency LLE>  (8) 
nan

>  <Ligand Efficiency SEI>  (8) 
nan

>  <ALogP>  (8) 
2.64

>  <Assay Organism>  (8) 
nan

>  <Assay Tissue ChEMBL ID>  (8) 
nan

>  <Assay Tissue Name>  (8) 
nan

>  <Assay Cell Type>  (8) 
nan

>  <Assay Subcellular Fraction>  (8) 
nan

>  <Organism Tax ID>  (8) 
9606

>  <BAO Format ID>  (8) 
BAO_0000019

>  <Published Type>  (8) 
nan

>  <Published Relation>  (8) 
nan

>  <Published Value>  (8) 
nan

>  <Published Units>  (8) 
nan

>  <Canonical Smiles>  (8) 
Oc1[nH]c2ccc(cc2c1c3ccc(CN4CCOCC4)cn3)C#N

>  <Data Validity Comment>  (8) 
nan

>  <Document Journal>  (8) 
nan

>  <Document Year>  (8) 
nan

>  <SRC ID>  (8) 
7

>  <UO Units>  (8) 
UO_0000065

>  <Potential Duplicate>  (8) 
False

>  <Class>  (8) 
0

$$$$

     RDKit          2D

 31 34  0  0  0  0  0  0  0  0999 V2000
   -3.0000   -2.5981    0.0000 N   0  0  0  0  0  0  0  0  0  0  0  0
   -1.5000   -2.5981    0.0000 C   0  0  0  0  0  0  0  0  0  0  0  0
   -0.7500   -3.8971    0.0000 C   0  0  0  0  0  0  0  0  0  0  0  0
    0.7500   -3.8971    0.0000 C   0  0  0  0  0  0  0  0  0  0  0  0
    1.5000   -2.5981    0.0000 C   0  0  0  0  0  0  0  0  0  0  0  0
    0.7500   -1.2990    0.0000 C   0  0  0  0  0  0  0  0  0  0  0  0
    1.5000    0.0000    0.0000 N   0  0  0  0  0  0  0  0  0  0  0  0
    0.7500    1.2990    0.0000 C   0  0  0  0  0  0  0  0  0  0  0  0
   -0.7500    1.2990    0.0000 C   0  0  0  0  0  0  0  0  0  0  0  0
   -1.5000    0.0000    0.0000 N   0  0  0  0  0  0  0  0  0  0  0  0
   -0.7500   -1.2990    0.0000 C   0  0  0  0  0  0  0  0  0  0  0  0
   -1.5000   -5.1962    0.0000 C   0  0  0  0  0  0  0  0  0  0  0  0
   -3.0000   -5.1962    0.0000 C   0  0  0  0  0  0  0  0  0  0  0  0
   -3.7500   -6.4952    0.0000 C   0  0  0  0  0  0  0  0  0  0  0  0
   -3.0000   -7.7942    0.0000 C   0  0  0  0  0  0  0  0  0  0  0  0
   -3.7500   -9.0933    0.0000 N   0  0  0  0  0  0  0  0  0  0  0  0
   -5.2500   -9.0933    0.0000 C   0  0  0  0  0  0  0  0  0  0  0  0
   -6.0000   -7.7942    0.0000 O   0  0  0  0  0  0  0  0  0  0  0  0
   -6.0000  -10.3923    0.0000 N   0  0  0  0  0  0  0  0  0  0  0  0
   -7.5000  -10.3923    0.0000 C   0  0  0  0  0  0  0  0  0  0  0  0
   -8.2500   -9.0933    0.0000 C   0  0  0  0  0  0  0  0  0  0  0  0
   -9.7500   -9.0933    0.0000 C   0  0  0  0  0  0  0  0  0  0  0  0
  -10.5000  -10.3923    0.0000 C   0  0  0  0  0  0  0  0  0  0  0  0
   -9.7500  -11.6913    0.0000 C   0  0  0  0  0  0  0  0  0  0  0  0
   -8.2500  -11.6913    0.0000 C   0  0  0  0  0  0  0  0  0  0  0  0
  -10.5000  -12.9904    0.0000 C   0  0  0  0  0  0  0  0  0  0  0  0
  -11.2500  -14.2894    0.0000 F   0  0  0  0  0  0  0  0  0  0  0  0
  -11.7990  -12.2404    0.0000 F   0  0  0  0  0  0  0  0  0  0  0  0
   -9.2010  -13.7404    0.0000 F   0  0  0  0  0  0  0  0  0  0  0  0
   -1.5000   -7.7942    0.0000 C   0  0  0  0  0  0  0  0  0  0  0  0
   -0.7500   -6.4952    0.0000 C   0  0  0  0  0  0  0  0  0  0  0  0
  1  2  1  0
  2  3  2  0
  3  4  1  0
  4  5  2  0
  5  6  1  0
  6  7  2  0
  7  8  1  0
  8  9  2  0
  9 10  1  0
 10 11  2  0
  3 12  1  0
 12 13  2  0
 13 14  1  0
 14 15  2  0
 15 16  1  0
 16 17  1  0
 17 18  2  0
 17 19  1  0
 19 20  1  0
 20 21  2  0
 21 22  1  0
 22 23  2  0
 23 24  1  0
 24 25  2  0
 24 26  1  0
 26 27  1  0
 26 28  1  0
 26 29  1  0
 15 30  1  0
 30 31  2  0
 11  2  1  0
 11  6  1  0
 31 12  1  0
 25 20  1  0
M  END
>  <Molecule>  (9) 
CHEMBL2004438

>  <Standard Type>  (9) 
Ki

>  <Standard Relation>  (9) 
>

>  <Standard Value>  (9) 
3162.28

>  <Standard Units>  (9) 
nM

>  <pChEMBL Value>  (9) 
nan

>  <Comment>  (9) 
inactive

>  <Compound Key>  (9) 
SID103904371

>  <Assay>  (9) 
CHEMBL1963742

>  <Assay Description>  (9) 
PUBCHEM_BIOASSAY: Navigating the Kinome. (Class of assay: other) Panel member name: JAK3

>  <BAO Format>  (9) 
assay format

>  <Target>  (9) 
CHEMBL2148

>  <Target Pref. Name>  (9) 
Tyrosine-protein kinase JAK3

>  <Target Organism>  (9) 
Homo sapiens

>  <Target Type>  (9) 
SINGLE PROTEIN

>  <Document>  (9) 
CHEMBL1201862

>  <Source>  (9) 
PubChem BioAssays

>  <Max Phase>  (9) 
0

>  <#Ro5 Violations>  (9) 
1

>  <Molecular Weight>  (9) 
423.4

>  <Ligand Efficiency BEI>  (9) 
nan

>  <Ligand Efficiency LE>  (9) 
nan

>  <Ligand Efficiency LLE>  (9) 
nan

>  <Ligand Efficiency SEI>  (9) 
nan

>  <ALogP>  (9) 
5.54

>  <Assay Organism>  (9) 
nan

>  <Assay Tissue ChEMBL ID>  (9) 
nan

>  <Assay Tissue Name>  (9) 
nan

>  <Assay Cell Type>  (9) 
nan

>  <Assay Subcellular Fraction>  (9) 
nan

>  <Organism Tax ID>  (9) 
9606

>  <BAO Format ID>  (9) 
BAO_0000019

>  <Published Type>  (9) 
nan

>  <Published Relation>  (9) 
nan

>  <Published Value>  (9) 
nan

>  <Published Units>  (9) 
nan

>  <Canonical Smiles>  (9) 
Nc1c(ccc2nccnc12)c3ccc(NC(=O)Nc4cccc(c4)C(F)(F)F)cc3

>  <Data Validity Comment>  (9) 
nan

>  <Document Journal>  (9) 
nan

>  <Document Year>  (9) 
nan

>  <SRC ID>  (9) 
7

>  <UO Units>  (9) 
UO_0000065

>  <Potential Duplicate>  (9) 
False

>  <Class>  (9) 
0

$$$$

     RDKit          2D

 26 28  0  0  0  0  0  0  0  0999 V2000
    5.2500   -1.2990    0.0000 F   0  0  0  0  0  0  0  0  0  0  0  0
    3.7500   -1.2990    0.0000 C   0  0  0  0  0  0  0  0  0  0  0  0
    3.0000   -2.5981    0.0000 F   0  0  0  0  0  0  0  0  0  0  0  0
    3.0000    0.0000    0.0000 S   0  0  0  0  0  0  0  0  0  0  0  0
    1.5000    0.0000    0.0000 C   0  0  0  0  0  0  0  0  0  0  0  0
    0.7500   -1.2990    0.0000 C   0  0  0  0  0  0  0  0  0  0  0  0
   -0.7500   -1.2990    0.0000 C   0  0  0  0  0  0  0  0  0  0  0  0
   -1.5000    0.0000    0.0000 C   0  0  0  0  0  0  0  0  0  0  0  0
   -3.0000    0.0000    0.0000 N   0  0  0  0  0  0  0  0  0  0  0  0
   -3.7500    1.2990    0.0000 C   0  0  0  0  0  0  0  0  0  0  0  0
   -3.0000    2.5981    0.0000 O   0  0  0  0  0  0  0  0  0  0  0  0
   -5.2500    1.2990    0.0000 C   0  0  0  0  0  0  0  0  0  0  0  0
   -6.0000    2.5981    0.0000 C   0  0  0  0  0  0  0  0  0  0  0  0
   -5.2500    3.8971    0.0000 C   0  0  0  0  0  0  0  0  0  0  0  0
   -6.0000    5.1962    0.0000 C   0  0  0  0  0  0  0  0  0  0  0  0
   -7.5000    5.1962    0.0000 C   0  0  0  0  0  0  0  0  0  0  0  0
   -8.2500    3.8971    0.0000 C   0  0  0  0  0  0  0  0  0  0  0  0
   -7.5000    2.5981    0.0000 C   0  0  0  0  0  0  0  0  0  0  0  0
   -8.2500    6.4952    0.0000 C   0  0  0  0  0  0  0  0  0  0  0  0
   -7.5000    7.7942    0.0000 C   0  0  0  0  0  0  0  0  0  0  0  0
   -8.2500    9.0933    0.0000 C   0  0  0  0  0  0  0  0  0  0  0  0
   -9.7500    9.0933    0.0000 C   0  0  0  0  0  0  0  0  0  0  0  0
  -10.5000    7.7942    0.0000 N   0  0  0  0  0  0  0  0  0  0  0  0
   -9.7500    6.4952    0.0000 C   0  0  0  0  0  0  0  0  0  0  0  0
   -0.7500    1.2990    0.0000 C   0  0  0  0  0  0  0  0  0  0  0  0
    0.7500    1.2990    0.0000 C   0  0  0  0  0  0  0  0  0  0  0  0
  1  2  1  0
  2  3  1  0
  2  4  1  0
  4  5  1  0
  5  6  2  0
  6  7  1  0
  7  8  2  0
  8  9  1  0
  9 10  1  0
 10 11  2  0
 10 12  1  0
 12 13  1  0
 13 14  2  0
 14 15  1  0
 15 16  2  0
 16 17  1  0
 17 18  2  0
 16 19  1  0
 19 20  2  0
 20 21  1  0
 21 22  2  0
 22 23  1  0
 23 24  2  0
  8 25  1  0
 25 26  2  0
 26  5  1  0
 18 13  1  0
 24 19  1  0
M  END
>  <Molecule>  (10) 
CHEMBL1992581

>  <Standard Type>  (10) 
Ki

>  <Standard Relation>  (10) 
>

>  <Standard Value>  (10) 
5011.87

>  <Standard Units>  (10) 
nM

>  <pChEMBL Value>  (10) 
nan

>  <Comment>  (10) 
inactive

>  <Compound Key>  (10) 
SID103905326

>  <Assay>  (10) 
CHEMBL1963742

>  <Assay Description>  (10) 
PUBCHEM_BIOASSAY: Navigating the Kinome. (Class of assay: other) Panel member name: JAK3

>  <BAO Format>  (10) 
assay format

>  <Target>  (10) 
CHEMBL2148

>  <Target Pref. Name>  (10) 
Tyrosine-protein kinase JAK3

>  <Target Organism>  (10) 
Homo sapiens

>  <Target Type>  (10) 
SINGLE PROTEIN

>  <Document>  (10) 
CHEMBL1201862

>  <Source>  (10) 
PubChem BioAssays

>  <Max Phase>  (10) 
0

>  <#Ro5 Violations>  (10) 
1

>  <Molecular Weight>  (10) 
370.42

>  <Ligand Efficiency BEI>  (10) 
nan

>  <Ligand Efficiency LE>  (10) 
nan

>  <Ligand Efficiency LLE>  (10) 
nan

>  <Ligand Efficiency SEI>  (10) 
nan

>  <ALogP>  (10) 
5.24

>  <Assay Organism>  (10) 
nan

>  <Assay Tissue ChEMBL ID>  (10) 
nan

>  <Assay Tissue Name>  (10) 
nan

>  <Assay Cell Type>  (10) 
nan

>  <Assay Subcellular Fraction>  (10) 
nan

>  <Organism Tax ID>  (10) 
9606

>  <BAO Format ID>  (10) 
BAO_0000019

>  <Published Type>  (10) 
nan

>  <Published Relation>  (10) 
nan

>  <Published Value>  (10) 
nan

>  <Published Units>  (10) 
nan

>  <Canonical Smiles>  (10) 
FC(F)Sc1ccc(NC(=O)Cc2ccc(cc2)c3cccnc3)cc1

>  <Data Validity Comment>  (10) 
nan

>  <Document Journal>  (10) 
nan

>  <Document Year>  (10) 
nan

>  <SRC ID>  (10) 
7

>  <UO Units>  (10) 
UO_0000065

>  <Potential Duplicate>  (10) 
False

>  <Class>  (10) 
0

$$$$

     RDKit          2D

 32 35  0  0  0  0  0  0  0  0999 V2000
   -2.2892    3.4524    0.0000 N   0  0  0  0  0  0  0  0  0  0  0  0
   -0.8268    3.1186    0.0000 C   0  0  0  0  0  0  0  0  0  0  0  0
    0.1935    4.2182    0.0000 N   0  0  0  0  0  0  0  0  0  0  0  0
    1.6559    3.8844    0.0000 C   0  0  0  0  0  0  0  0  0  0  0  0
    2.0980    2.4510    0.0000 N   0  0  0  0  0  0  0  0  0  0  0  0
    1.0777    1.3515    0.0000 C   0  0  0  0  0  0  0  0  0  0  0  0
    1.7286    0.0000    0.0000 N   0  0  0  0  0  0  0  0  0  0  0  0
    1.0777   -1.3515    0.0000 C   0  0  0  0  0  0  0  0  0  0  0  0
   -0.3846   -1.6852    0.0000 C   0  0  0  0  0  0  0  0  0  0  0  0
   -1.5574   -0.7500    0.0000 C   0  0  0  0  0  0  0  0  0  0  0  0
   -1.5574    0.7500    0.0000 N   0  0  0  0  0  0  0  0  0  0  0  0
   -0.3846    1.6852    0.0000 C   0  0  0  0  0  0  0  0  0  0  0  0
   -2.9088   -1.4008    0.0000 C   0  0  0  0  0  0  0  0  0  0  0  0
   -4.1482   -0.5558    0.0000 C   0  0  0  0  0  0  0  0  0  0  0  0
   -5.4997   -1.2067    0.0000 C   0  0  0  0  0  0  0  0  0  0  0  0
   -5.6118   -2.7025    0.0000 C   0  0  0  0  0  0  0  0  0  0  0  0
   -6.9632   -3.3533    0.0000 N   0  0  0  0  0  0  0  0  0  0  0  0
   -8.2026   -2.5083    0.0000 C   0  0  0  0  0  0  0  0  0  0  0  0
   -8.0905   -1.0125    0.0000 O   0  0  0  0  0  0  0  0  0  0  0  0
   -9.5540   -3.1591    0.0000 N   0  0  0  0  0  0  0  0  0  0  0  0
  -10.7934   -2.3142    0.0000 C   0  0  0  0  0  0  0  0  0  0  0  0
  -10.6813   -0.8184    0.0000 C   0  0  0  0  0  0  0  0  0  0  0  0
  -11.9206    0.0266    0.0000 C   0  0  0  0  0  0  0  0  0  0  0  0
  -13.2721   -0.6242    0.0000 C   0  0  0  0  0  0  0  0  0  0  0  0
  -13.3842   -2.1200    0.0000 C   0  0  0  0  0  0  0  0  0  0  0  0
  -12.1448   -2.9650    0.0000 C   0  0  0  0  0  0  0  0  0  0  0  0
  -14.7356   -2.7708    0.0000 C   0  0  0  0  0  0  0  0  0  0  0  0
  -16.0871   -3.4217    0.0000 F   0  0  0  0  0  0  0  0  0  0  0  0
  -15.3865   -1.4194    0.0000 F   0  0  0  0  0  0  0  0  0  0  0  0
  -14.0848   -4.1223    0.0000 F   0  0  0  0  0  0  0  0  0  0  0  0
   -4.3724   -3.5475    0.0000 C   0  0  0  0  0  0  0  0  0  0  0  0
   -3.0209   -2.8966    0.0000 C   0  0  0  0  0  0  0  0  0  0  0  0
  1  2  1  0
  2  3  2  0
  3  4  1  0
  4  5  2  0
  5  6  1  0
  6  7  1  0
  7  8  1  0
  8  9  1  0
  9 10  1  0
 10 11  2  0
 11 12  1  0
 10 13  1  0
 13 14  2  0
 14 15  1  0
 15 16  2  0
 16 17  1  0
 17 18  1  0
 18 19  2  0
 18 20  1  0
 20 21  1  0
 21 22  2  0
 22 23  1  0
 23 24  2  0
 24 25  1  0
 25 26  2  0
 25 27  1  0
 27 28  1  0
 27 29  1  0
 27 30  1  0
 16 31  1  0
 31 32  2  0
 12  2  1  0
 12  6  2  0
 32 13  1  0
 26 21  1  0
M  END
>  <Molecule>  (11) 
CHEMBL260092

>  <Standard Type>  (11) 
Ki

>  <Standard Relation>  (11) 
=

>  <Standard Value>  (11) 
501.19

>  <Standard Units>  (11) 
nM

>  <pChEMBL Value>  (11) 
6.3

>  <Comment>  (11) 
active

>  <Compound Key>  (11) 
SID103904742

>  <Assay>  (11) 
CHEMBL1963742

>  <Assay Description>  (11) 
PUBCHEM_BIOASSAY: Navigating the Kinome. (Class of assay: other) Panel member name: JAK3

>  <BAO Format>  (11) 
assay format

>  <Target>  (11) 
CHEMBL2148

>  <Target Pref. Name>  (11) 
Tyrosine-protein kinase JAK3

>  <Target Organism>  (11) 
Homo sapiens

>  <Target Type>  (11) 
SINGLE PROTEIN

>  <Document>  (11) 
CHEMBL1201862

>  <Source>  (11) 
PubChem BioAssays

>  <Max Phase>  (11) 
0

>  <#Ro5 Violations>  (11) 
0

>  <Molecular Weight>  (11) 
441.42

>  <Ligand Efficiency BEI>  (11) 
nan

>  <Ligand Efficiency LE>  (11) 
nan

>  <Ligand Efficiency LLE>  (11) 
nan

>  <Ligand Efficiency SEI>  (11) 
nan

>  <ALogP>  (11) 
4.66

>  <Assay Organism>  (11) 
nan

>  <Assay Tissue ChEMBL ID>  (11) 
nan

>  <Assay Tissue Name>  (11) 
nan

>  <Assay Cell Type>  (11) 
nan

>  <Assay Subcellular Fraction>  (11) 
nan

>  <Organism Tax ID>  (11) 
9606

>  <BAO Format ID>  (11) 
BAO_0000019

>  <Published Type>  (11) 
nan

>  <Published Relation>  (11) 
nan

>  <Published Value>  (11) 
nan

>  <Published Units>  (11) 
nan

>  <Canonical Smiles>  (11) 
Nc1ncnc2NCCC(=Nc12)c3ccc(NC(=O)Nc4cccc(c4)C(F)(F)F)cc3

>  <Data Validity Comment>  (11) 
nan

>  <Document Journal>  (11) 
nan

>  <Document Year>  (11) 
nan

>  <SRC ID>  (11) 
7

>  <UO Units>  (11) 
UO_0000065

>  <Potential Duplicate>  (11) 
False

>  <Class>  (11) 
1

$$$$

     RDKit          2D

 40 44  0  0  0  0  0  0  0  0999 V2000
    9.0985   -9.6461    0.0000 C   0  0  0  0  0  0  0  0  0  0  0  0
    7.7282   -9.0360    0.0000 S   0  0  0  0  0  0  0  0  0  0  0  0
    8.3383   -7.6657    0.0000 O   0  0  0  0  0  0  0  0  0  0  0  0
    7.1181  -10.4063    0.0000 O   0  0  0  0  0  0  0  0  0  0  0  0
    6.3579   -8.4259    0.0000 C   0  0  0  0  0  0  0  0  0  0  0  0
    6.2011   -6.9341    0.0000 C   0  0  0  0  0  0  0  0  0  0  0  0
    4.8308   -6.3240    0.0000 N   0  0  0  0  0  0  0  0  0  0  0  0
    4.6740   -4.8322    0.0000 C   0  0  0  0  0  0  0  0  0  0  0  0
    3.3037   -4.2221    0.0000 C   0  0  0  0  0  0  0  0  0  0  0  0
    2.9918   -2.7549    0.0000 O   0  0  0  0  0  0  0  0  0  0  0  0
    1.5000   -2.5981    0.0000 C   0  0  0  0  0  0  0  0  0  0  0  0
    0.8899   -3.9684    0.0000 C   0  0  0  0  0  0  0  0  0  0  0  0
    2.0046   -4.9721    0.0000 C   0  0  0  0  0  0  0  0  0  0  0  0
    0.7500   -1.2990    0.0000 C   0  0  0  0  0  0  0  0  0  0  0  0
    1.5000    0.0000    0.0000 C   0  0  0  0  0  0  0  0  0  0  0  0
    0.7500    1.2990    0.0000 C   0  0  0  0  0  0  0  0  0  0  0  0
   -0.7500    1.2990    0.0000 C   0  0  0  0  0  0  0  0  0  0  0  0
   -1.5000    2.5981    0.0000 N   0  0  0  0  0  0  0  0  0  0  0  0
   -3.0000    2.5981    0.0000 C   0  0  0  0  0  0  0  0  0  0  0  0
   -3.7500    1.2990    0.0000 N   0  0  0  0  0  0  0  0  0  0  0  0
   -3.0000    0.0000    0.0000 C   0  0  0  0  0  0  0  0  0  0  0  0
   -3.7500   -1.2990    0.0000 N   0  0  0  0  0  0  0  0  0  0  0  0
   -5.2500   -1.2990    0.0000 C   0  0  0  0  0  0  0  0  0  0  0  0
   -6.0000    0.0000    0.0000 C   0  0  0  0  0  0  0  0  0  0  0  0
   -7.5000    0.0000    0.0000 C   0  0  0  0  0  0  0  0  0  0  0  0
   -8.2500   -1.2990    0.0000 C   0  0  0  0  0  0  0  0  0  0  0  0
   -9.7500   -1.2990    0.0000 O   0  0  0  0  0  0  0  0  0  0  0  0
  -10.5000    0.0000    0.0000 C   0  0  0  0  0  0  0  0  0  0  0  0
  -12.0000    0.0000    0.0000 C   0  0  0  0  0  0  0  0  0  0  0  0
  -12.7500    1.2990    0.0000 C   0  0  0  0  0  0  0  0  0  0  0  0
  -14.2500    1.2990    0.0000 C   0  0  0  0  0  0  0  0  0  0  0  0
  -15.0000    0.0000    0.0000 C   0  0  0  0  0  0  0  0  0  0  0  0
  -14.2500   -1.2990    0.0000 C   0  0  0  0  0  0  0  0  0  0  0  0
  -15.0000   -2.5981    0.0000 F   0  0  0  0  0  0  0  0  0  0  0  0
  -12.7500   -1.2990    0.0000 C   0  0  0  0  0  0  0  0  0  0  0  0
   -7.5000   -2.5981    0.0000 C   0  0  0  0  0  0  0  0  0  0  0  0
   -8.2500   -3.8971    0.0000 Cl  0  0  0  0  0  0  0  0  0  0  0  0
   -6.0000   -2.5981    0.0000 C   0  0  0  0  0  0  0  0  0  0  0  0
   -1.5000    0.0000    0.0000 C   0  0  0  0  0  0  0  0  0  0  0  0
   -0.7500   -1.2990    0.0000 C   0  0  0  0  0  0  0  0  0  0  0  0
  1  2  1  0
  2  3  2  0
  2  4  2  0
  2  5  1  0
  5  6  1  0
  6  7  1  0
  7  8  1  0
  8  9  1  0
  9 10  1  0
 10 11  1  0
 11 12  2  0
 12 13  1  0
 11 14  1  0
 14 15  2  0
 15 16  1  0
 16 17  2  0
 17 18  1  0
 18 19  2  0
 19 20  1  0
 20 21  2  0
 21 22  1  0
 22 23  1  0
 23 24  2  0
 24 25  1  0
 25 26  2  0
 26 27  1  0
 27 28  1  0
 28 29  1  0
 29 30  2  0
 30 31  1  0
 31 32  2  0
 32 33  1  0
 33 34  1  0
 33 35  2  0
 26 36  1  0
 36 37  1  0
 36 38  2  0
 21 39  1  0
 39 40  2  0
 13  9  2  0
 40 14  1  0
 39 17  1  0
 38 23  1  0
 35 29  1  0
M  END
>  <Molecule>  (12) 
CHEMBL554

>  <Standard Type>  (12) 
Ki

>  <Standard Relation>  (12) 
>

>  <Standard Value>  (12) 
1584.89

>  <Standard Units>  (12) 
nM

>  <pChEMBL Value>  (12) 
nan

>  <Comment>  (12) 
inactive

>  <Compound Key>  (12) 
SID103905567

>  <Assay>  (12) 
CHEMBL1963742

>  <Assay Description>  (12) 
PUBCHEM_BIOASSAY: Navigating the Kinome. (Class of assay: other) Panel member name: JAK3

>  <BAO Format>  (12) 
assay format

>  <Target>  (12) 
CHEMBL2148

>  <Target Pref. Name>  (12) 
Tyrosine-protein kinase JAK3

>  <Target Organism>  (12) 
Homo sapiens

>  <Target Type>  (12) 
SINGLE PROTEIN

>  <Document>  (12) 
CHEMBL1201862

>  <Source>  (12) 
PubChem BioAssays

>  <Max Phase>  (12) 
4

>  <#Ro5 Violations>  (12) 
2

>  <Molecular Weight>  (12) 
581.07

>  <Ligand Efficiency BEI>  (12) 
nan

>  <Ligand Efficiency LE>  (12) 
nan

>  <Ligand Efficiency LLE>  (12) 
nan

>  <Ligand Efficiency SEI>  (12) 
nan

>  <ALogP>  (12) 
6.14

>  <Assay Organism>  (12) 
nan

>  <Assay Tissue ChEMBL ID>  (12) 
nan

>  <Assay Tissue Name>  (12) 
nan

>  <Assay Cell Type>  (12) 
nan

>  <Assay Subcellular Fraction>  (12) 
nan

>  <Organism Tax ID>  (12) 
9606

>  <BAO Format ID>  (12) 
BAO_0000019

>  <Published Type>  (12) 
nan

>  <Published Relation>  (12) 
nan

>  <Published Value>  (12) 
nan

>  <Published Units>  (12) 
nan

>  <Canonical Smiles>  (12) 
CS(=O)(=O)CCNCc1oc(cc1)c2ccc3ncnc(Nc4ccc(OCc5cccc(F)c5)c(Cl)c4)c3c2

>  <Data Validity Comment>  (12) 
nan

>  <Document Journal>  (12) 
nan

>  <Document Year>  (12) 
nan

>  <SRC ID>  (12) 
7

>  <UO Units>  (12) 
UO_0000065

>  <Potential Duplicate>  (12) 
False

>  <Class>  (12) 
0

$$$$

     RDKit          2D

 37 40  0  0  0  0  0  0  0  0999 V2000
    9.7500   -3.8971    0.0000 C   0  0  0  0  0  0  0  0  0  0  0  0
    8.2500   -3.8971    0.0000 C   0  0  0  0  0  0  0  0  0  0  0  0
    7.5000   -2.5981    0.0000 N   0  0  0  0  0  0  0  0  0  0  0  0
    8.2500   -1.2990    0.0000 C   0  0  0  0  0  0  0  0  0  0  0  0
    9.7500   -1.2990    0.0000 C   0  0  0  0  0  0  0  0  0  0  0  0
   10.5000    0.0000    0.0000 O   0  0  0  0  0  0  0  0  0  0  0  0
    6.0000   -2.5981    0.0000 C   0  0  0  0  0  0  0  0  0  0  0  0
    5.2500   -1.2990    0.0000 C   0  0  0  0  0  0  0  0  0  0  0  0
    3.7500   -1.2990    0.0000 C   0  0  0  0  0  0  0  0  0  0  0  0
    3.0000    0.0000    0.0000 O   0  0  0  0  0  0  0  0  0  0  0  0
    1.5000    0.0000    0.0000 C   0  0  0  0  0  0  0  0  0  0  0  0
    0.7500   -1.2990    0.0000 C   0  0  0  0  0  0  0  0  0  0  0  0
   -0.7500   -1.2990    0.0000 C   0  0  0  0  0  0  0  0  0  0  0  0
   -1.5000    0.0000    0.0000 C   0  0  0  0  0  0  0  0  0  0  0  0
   -3.0000    0.0000    0.0000 C   0  0  0  0  0  0  0  0  0  0  0  0
   -3.7500   -1.2990    0.0000 N   0  0  0  0  0  0  0  0  0  0  0  0
   -5.2500   -1.2990    0.0000 C   0  0  0  0  0  0  0  0  0  0  0  0
   -6.1317   -2.5126    0.0000 C   0  0  0  0  0  0  0  0  0  0  0  0
   -7.5583   -2.0490    0.0000 C   0  0  0  0  0  0  0  0  0  0  0  0
   -8.7718   -2.9307    0.0000 C   0  0  0  0  0  0  0  0  0  0  0  0
  -10.1421   -2.3206    0.0000 C   0  0  0  0  0  0  0  0  0  0  0  0
  -10.2989   -0.8288    0.0000 O   0  0  0  0  0  0  0  0  0  0  0  0
  -11.3556   -3.2023    0.0000 N   0  0  0  0  0  0  0  0  0  0  0  0
  -12.7260   -2.5922    0.0000 C   0  0  0  0  0  0  0  0  0  0  0  0
  -12.8827   -1.1004    0.0000 C   0  0  0  0  0  0  0  0  0  0  0  0
  -14.2531   -0.4903    0.0000 C   0  0  0  0  0  0  0  0  0  0  0  0
  -15.4666   -1.3720    0.0000 C   0  0  0  0  0  0  0  0  0  0  0  0
  -15.3098   -2.8638    0.0000 C   0  0  0  0  0  0  0  0  0  0  0  0
  -16.5233   -3.7454    0.0000 F   0  0  0  0  0  0  0  0  0  0  0  0
  -13.9395   -3.4739    0.0000 C   0  0  0  0  0  0  0  0  0  0  0  0
   -7.5583   -0.5490    0.0000 N   0  0  0  0  0  0  0  0  0  0  0  0
   -6.1317   -0.0855    0.0000 N   0  0  0  0  0  0  0  0  0  0  0  0
   -3.7500    1.2990    0.0000 N   0  0  0  0  0  0  0  0  0  0  0  0
   -3.0000    2.5981    0.0000 C   0  0  0  0  0  0  0  0  0  0  0  0
   -1.5000    2.5981    0.0000 N   0  0  0  0  0  0  0  0  0  0  0  0
   -0.7500    1.2990    0.0000 C   0  0  0  0  0  0  0  0  0  0  0  0
    0.7500    1.2990    0.0000 C   0  0  0  0  0  0  0  0  0  0  0  0
  1  2  1  0
  2  3  1  0
  3  4  1  0
  4  5  1  0
  5  6  1  0
  3  7  1  0
  7  8  1  0
  8  9  1  0
  9 10  1  0
 10 11  1  0
 11 12  2  0
 12 13  1  0
 13 14  2  0
 14 15  1  0
 15 16  1  0
 16 17  1  0
 17 18  1  0
 18 19  2  0
 19 20  1  0
 20 21  1  0
 21 22  2  0
 21 23  1  0
 23 24  1  0
 24 25  2  0
 25 26  1  0
 26 27  2  0
 27 28  1  0
 28 29  1  0
 28 30  2  0
 19 31  1  0
 31 32  1  0
 15 33  2  0
 33 34  1  0
 34 35  2  0
 35 36  1  0
 36 37  2  0
 37 11  1  0
 36 14  1  0
 32 17  2  0
 30 24  1  0
M  END
>  <Molecule>  (13) 
CHEMBL215152

>  <Standard Type>  (13) 
Ki

>  <Standard Relation>  (13) 
>

>  <Standard Value>  (13) 
3981.07

>  <Standard Units>  (13) 
nM

>  <pChEMBL Value>  (13) 
nan

>  <Comment>  (13) 
inactive

>  <Compound Key>  (13) 
SID103905345

>  <Assay>  (13) 
CHEMBL1963742

>  <Assay Description>  (13) 
PUBCHEM_BIOASSAY: Navigating the Kinome. (Class of assay: other) Panel member name: JAK3

>  <BAO Format>  (13) 
assay format

>  <Target>  (13) 
CHEMBL2148

>  <Target Pref. Name>  (13) 
Tyrosine-protein kinase JAK3

>  <Target Organism>  (13) 
Homo sapiens

>  <Target Type>  (13) 
SINGLE PROTEIN

>  <Document>  (13) 
CHEMBL1201862

>  <Source>  (13) 
PubChem BioAssays

>  <Max Phase>  (13) 
0

>  <#Ro5 Violations>  (13) 
1

>  <Molecular Weight>  (13) 
507.57

>  <Ligand Efficiency BEI>  (13) 
nan

>  <Ligand Efficiency LE>  (13) 
nan

>  <Ligand Efficiency LLE>  (13) 
nan

>  <Ligand Efficiency SEI>  (13) 
nan

>  <ALogP>  (13) 
3.5

>  <Assay Organism>  (13) 
nan

>  <Assay Tissue ChEMBL ID>  (13) 
nan

>  <Assay Tissue Name>  (13) 
nan

>  <Assay Cell Type>  (13) 
nan

>  <Assay Subcellular Fraction>  (13) 
nan

>  <Organism Tax ID>  (13) 
9606

>  <BAO Format ID>  (13) 
BAO_0000019

>  <Published Type>  (13) 
nan

>  <Published Relation>  (13) 
nan

>  <Published Value>  (13) 
nan

>  <Published Units>  (13) 
nan

>  <Canonical Smiles>  (13) 
CCN(CCO)CCCOc1ccc2c(Nc3cc(CC(=O)Nc4cccc(F)c4)[nH]n3)ncnc2c1

>  <Data Validity Comment>  (13) 
nan

>  <Document Journal>  (13) 
nan

>  <Document Year>  (13) 
nan

>  <SRC ID>  (13) 
7

>  <UO Units>  (13) 
UO_0000065

>  <Potential Duplicate>  (13) 
False

>  <Class>  (13) 
0

$$$$

     RDKit          2D

 37 41  0  0  0  0  0  0  0  0999 V2000
   -3.5736    1.2902    0.0000 N   0  0  0  0  0  0  0  0  0  0  0  0
   -2.1470    1.7537    0.0000 C   0  0  0  0  0  0  0  0  0  0  0  0
   -1.8351    3.2209    0.0000 N   0  0  0  0  0  0  0  0  0  0  0  0
   -0.4086    3.6844    0.0000 C   0  0  0  0  0  0  0  0  0  0  0  0
    0.7062    2.6807    0.0000 C   0  0  0  0  0  0  0  0  0  0  0  0
    2.1328    3.1443    0.0000 C   0  0  0  0  0  0  0  0  0  0  0  0
    3.2475    2.1406    0.0000 C   0  0  0  0  0  0  0  0  0  0  0  0
    4.6741    2.6041    0.0000 C   0  0  0  0  0  0  0  0  0  0  0  0
    4.9859    4.0713    0.0000 N   0  0  0  0  0  0  0  0  0  0  0  0
    3.8712    5.0750    0.0000 C   0  0  0  0  0  0  0  0  0  0  0  0
    2.4446    4.6115    0.0000 C   0  0  0  0  0  0  0  0  0  0  0  0
    0.3943    1.2135    0.0000 C   0  0  0  0  0  0  0  0  0  0  0  0
    1.2760    0.0000    0.0000 S   0  0  0  0  0  0  0  0  0  0  0  0
    0.3943   -1.2135    0.0000 C   0  0  0  0  0  0  0  0  0  0  0  0
   -1.0323   -0.7500    0.0000 C   0  0  0  0  0  0  0  0  0  0  0  0
   -2.2458   -1.6317    0.0000 C   0  0  0  0  0  0  0  0  0  0  0  0
   -3.6161   -1.0216    0.0000 C   0  0  0  0  0  0  0  0  0  0  0  0
   -4.8297   -1.9033    0.0000 C   0  0  0  0  0  0  0  0  0  0  0  0
   -4.6729   -3.3950    0.0000 C   0  0  0  0  0  0  0  0  0  0  0  0
   -5.8864   -4.2767    0.0000 N   0  0  0  0  0  0  0  0  0  0  0  0
   -7.2567   -3.6666    0.0000 C   0  0  0  0  0  0  0  0  0  0  0  0
   -7.4135   -2.1748    0.0000 O   0  0  0  0  0  0  0  0  0  0  0  0
   -8.4702   -4.5483    0.0000 N   0  0  0  0  0  0  0  0  0  0  0  0
   -9.8406   -3.9382    0.0000 C   0  0  0  0  0  0  0  0  0  0  0  0
   -9.9973   -2.4464    0.0000 C   0  0  0  0  0  0  0  0  0  0  0  0
  -11.3677   -1.8363    0.0000 C   0  0  0  0  0  0  0  0  0  0  0  0
  -12.5812   -2.7180    0.0000 C   0  0  0  0  0  0  0  0  0  0  0  0
  -12.4244   -4.2098    0.0000 C   0  0  0  0  0  0  0  0  0  0  0  0
  -11.0541   -4.8199    0.0000 C   0  0  0  0  0  0  0  0  0  0  0  0
  -10.8973   -6.3116    0.0000 F   0  0  0  0  0  0  0  0  0  0  0  0
  -11.5245   -0.3445    0.0000 C   0  0  0  0  0  0  0  0  0  0  0  0
  -11.6812    1.1473    0.0000 F   0  0  0  0  0  0  0  0  0  0  0  0
  -10.0327   -0.1877    0.0000 F   0  0  0  0  0  0  0  0  0  0  0  0
  -13.0162   -0.5013    0.0000 F   0  0  0  0  0  0  0  0  0  0  0  0
   -3.3025   -4.0051    0.0000 C   0  0  0  0  0  0  0  0  0  0  0  0
   -2.0890   -3.1235    0.0000 C   0  0  0  0  0  0  0  0  0  0  0  0
   -1.0323    0.7500    0.0000 C   0  0  0  0  0  0  0  0  0  0  0  0
  1  2  1  0
  2  3  2  0
  3  4  1  0
  4  5  2  0
  5  6  1  0
  6  7  2  0
  7  8  1  0
  8  9  2  0
  9 10  1  0
 10 11  2  0
  5 12  1  0
 12 13  1  0
 13 14  1  0
 14 15  2  0
 15 16  1  0
 16 17  2  0
 17 18  1  0
 18 19  2  0
 19 20  1  0
 20 21  1  0
 21 22  2  0
 21 23  1  0
 23 24  1  0
 24 25  2  0
 25 26  1  0
 26 27  2  0
 27 28  1  0
 28 29  2  0
 29 30  1  0
 26 31  1  0
 31 32  1  0
 31 33  1  0
 31 34  1  0
 19 35  1  0
 35 36  2  0
 15 37  1  0
 37  2  1  0
 11  6  1  0
 37 12  2  0
 36 16  1  0
 29 24  1  0
M  END
>  <Molecule>  (14) 
CHEMBL1970083

>  <Standard Type>  (14) 
Ki

>  <Standard Relation>  (14) 
=

>  <Standard Value>  (14) 
158.49

>  <Standard Units>  (14) 
nM

>  <pChEMBL Value>  (14) 
6.8

>  <Comment>  (14) 
active

>  <Compound Key>  (14) 
SID103904279

>  <Assay>  (14) 
CHEMBL1963742

>  <Assay Description>  (14) 
PUBCHEM_BIOASSAY: Navigating the Kinome. (Class of assay: other) Panel member name: JAK3

>  <BAO Format>  (14) 
assay format

>  <Target>  (14) 
CHEMBL2148

>  <Target Pref. Name>  (14) 
Tyrosine-protein kinase JAK3

>  <Target Organism>  (14) 
Homo sapiens

>  <Target Type>  (14) 
SINGLE PROTEIN

>  <Document>  (14) 
CHEMBL1201862

>  <Source>  (14) 
PubChem BioAssays

>  <Max Phase>  (14) 
0

>  <#Ro5 Violations>  (14) 
2

>  <Molecular Weight>  (14) 
523.52

>  <Ligand Efficiency BEI>  (14) 
nan

>  <Ligand Efficiency LE>  (14) 
nan

>  <Ligand Efficiency LLE>  (14) 
nan

>  <Ligand Efficiency SEI>  (14) 
nan

>  <ALogP>  (14) 
7.41

>  <Assay Organism>  (14) 
nan

>  <Assay Tissue ChEMBL ID>  (14) 
nan

>  <Assay Tissue Name>  (14) 
nan

>  <Assay Cell Type>  (14) 
nan

>  <Assay Subcellular Fraction>  (14) 
nan

>  <Organism Tax ID>  (14) 
9606

>  <BAO Format ID>  (14) 
BAO_0000019

>  <Published Type>  (14) 
nan

>  <Published Relation>  (14) 
nan

>  <Published Value>  (14) 
nan

>  <Published Units>  (14) 
nan

>  <Canonical Smiles>  (14) 
Nc1ncc(c2ccncc2)c3scc(c4ccc(NC(=O)Nc5cc(ccc5F)C(F)(F)F)cc4)c13

>  <Data Validity Comment>  (14) 
nan

>  <Document Journal>  (14) 
nan

>  <Document Year>  (14) 
nan

>  <SRC ID>  (14) 
7

>  <UO Units>  (14) 
UO_0000065

>  <Potential Duplicate>  (14) 
False

>  <Class>  (14) 
1

$$$$

     RDKit          2D

 26 28  0  0  0  0  0  0  0  0999 V2000
    3.7500   -1.2990    0.0000 C   0  0  0  0  0  0  0  0  0  0  0  0
    3.0000    0.0000    0.0000 O   0  0  0  0  0  0  0  0  0  0  0  0
    1.5000    0.0000    0.0000 C   0  0  0  0  0  0  0  0  0  0  0  0
    0.7500   -1.2990    0.0000 C   0  0  0  0  0  0  0  0  0  0  0  0
   -0.7500   -1.2990    0.0000 C   0  0  0  0  0  0  0  0  0  0  0  0
   -1.5000    0.0000    0.0000 C   0  0  0  0  0  0  0  0  0  0  0  0
   -0.7500    1.2990    0.0000 C   0  0  0  0  0  0  0  0  0  0  0  0
    0.7500    1.2990    0.0000 C   0  0  0  0  0  0  0  0  0  0  0  0
   -1.5000    2.5981    0.0000 C   0  0  0  0  0  0  0  0  0  0  0  0
   -0.7500    3.8971    0.0000 C   0  0  0  0  0  0  0  0  0  0  0  0
   -1.5000    5.1962    0.0000 N   0  0  0  0  0  0  0  0  0  0  0  0
   -3.0000    2.5981    0.0000 N   0  0  0  0  0  0  0  0  0  0  0  0
   -3.7500    3.8971    0.0000 C   0  0  0  0  0  0  0  0  0  0  0  0
   -3.0000    5.1962    0.0000 O   0  0  0  0  0  0  0  0  0  0  0  0
   -5.2500    3.8971    0.0000 C   0  0  0  0  0  0  0  0  0  0  0  0
   -6.0000    5.1962    0.0000 C   0  0  0  0  0  0  0  0  0  0  0  0
   -7.5000    5.1962    0.0000 C   0  0  0  0  0  0  0  0  0  0  0  0
   -8.2500    3.8971    0.0000 C   0  0  0  0  0  0  0  0  0  0  0  0
   -7.5000    2.5981    0.0000 C   0  0  0  0  0  0  0  0  0  0  0  0
   -6.0000    2.5981    0.0000 C   0  0  0  0  0  0  0  0  0  0  0  0
   -9.7500    3.8971    0.0000 C   0  0  0  0  0  0  0  0  0  0  0  0
  -10.5000    5.1962    0.0000 C   0  0  0  0  0  0  0  0  0  0  0  0
  -12.0000    5.1962    0.0000 C   0  0  0  0  0  0  0  0  0  0  0  0
  -12.7500    3.8971    0.0000 N   0  0  0  0  0  0  0  0  0  0  0  0
  -12.0000    2.5981    0.0000 C   0  0  0  0  0  0  0  0  0  0  0  0
  -10.5000    2.5981    0.0000 C   0  0  0  0  0  0  0  0  0  0  0  0
  1  2  1  0
  2  3  1  0
  3  4  2  0
  4  5  1  0
  5  6  2  0
  6  7  1  0
  7  8  2  0
  7  9  1  0
  9 10  1  0
 10 11  1  0
  9 12  1  0
 12 13  1  0
 13 14  2  0
 13 15  1  0
 15 16  2  0
 16 17  1  0
 17 18  2  0
 18 19  1  0
 19 20  2  0
 18 21  1  0
 21 22  2  0
 22 23  1  0
 23 24  2  0
 24 25  1  0
 25 26  2  0
  8  3  1  0
 20 15  1  0
 26 21  1  0
M  END
>  <Molecule>  (15) 
CHEMBL1976240

>  <Standard Type>  (15) 
Ki

>  <Standard Relation>  (15) 
>

>  <Standard Value>  (15) 
1584.89

>  <Standard Units>  (15) 
nM

>  <pChEMBL Value>  (15) 
nan

>  <Comment>  (15) 
inactive

>  <Compound Key>  (15) 
SID103904556

>  <Assay>  (15) 
CHEMBL1963742

>  <Assay Description>  (15) 
PUBCHEM_BIOASSAY: Navigating the Kinome. (Class of assay: other) Panel member name: JAK3

>  <BAO Format>  (15) 
assay format

>  <Target>  (15) 
CHEMBL2148

>  <Target Pref. Name>  (15) 
Tyrosine-protein kinase JAK3

>  <Target Organism>  (15) 
Homo sapiens

>  <Target Type>  (15) 
SINGLE PROTEIN

>  <Document>  (15) 
CHEMBL1201862

>  <Source>  (15) 
PubChem BioAssays

>  <Max Phase>  (15) 
0

>  <#Ro5 Violations>  (15) 
0

>  <Molecular Weight>  (15) 
347.42

>  <Ligand Efficiency BEI>  (15) 
nan

>  <Ligand Efficiency LE>  (15) 
nan

>  <Ligand Efficiency LLE>  (15) 
nan

>  <Ligand Efficiency SEI>  (15) 
nan

>  <ALogP>  (15) 
3.19

>  <Assay Organism>  (15) 
nan

>  <Assay Tissue ChEMBL ID>  (15) 
nan

>  <Assay Tissue Name>  (15) 
nan

>  <Assay Cell Type>  (15) 
nan

>  <Assay Subcellular Fraction>  (15) 
nan

>  <Organism Tax ID>  (15) 
9606

>  <BAO Format ID>  (15) 
BAO_0000019

>  <Published Type>  (15) 
nan

>  <Published Relation>  (15) 
nan

>  <Published Value>  (15) 
nan

>  <Published Units>  (15) 
nan

>  <Canonical Smiles>  (15) 
COc1cccc(c1)C(CN)NC(=O)c2ccc(cc2)c3ccncc3

>  <Data Validity Comment>  (15) 
nan

>  <Document Journal>  (15) 
nan

>  <Document Year>  (15) 
nan

>  <SRC ID>  (15) 
7

>  <UO Units>  (15) 
UO_0000065

>  <Potential Duplicate>  (15) 
False

>  <Class>  (15) 
0

$$$$

     RDKit          2D

 26 29  0  0  0  0  0  0  0  0999 V2000
    8.1173    8.1673    0.0000 C   0  0  0  0  0  0  0  0  0  0  0  0
    6.6501    7.8555    0.0000 O   0  0  0  0  0  0  0  0  0  0  0  0
    6.1865    6.4289    0.0000 C   0  0  0  0  0  0  0  0  0  0  0  0
    7.1902    5.3142    0.0000 C   0  0  0  0  0  0  0  0  0  0  0  0
    6.7267    3.8876    0.0000 C   0  0  0  0  0  0  0  0  0  0  0  0
    5.2595    3.5757    0.0000 C   0  0  0  0  0  0  0  0  0  0  0  0
    4.2558    4.6904    0.0000 C   0  0  0  0  0  0  0  0  0  0  0  0
    2.7886    4.3786    0.0000 C   0  0  0  0  0  0  0  0  0  0  0  0
    2.3250    2.9520    0.0000 N   0  0  0  0  0  0  0  0  0  0  0  0
    0.8578    2.6401    0.0000 C   0  0  0  0  0  0  0  0  0  0  0  0
   -0.1459    3.7548    0.0000 O   0  0  0  0  0  0  0  0  0  0  0  0
    0.3943    1.2135    0.0000 C   0  0  0  0  0  0  0  0  0  0  0  0
    1.2760    0.0000    0.0000 C   0  0  0  0  0  0  0  0  0  0  0  0
    0.3943   -1.2135    0.0000 C   0  0  0  0  0  0  0  0  0  0  0  0
    0.3943   -2.7135    0.0000 C   0  0  0  0  0  0  0  0  0  0  0  0
   -1.0323   -3.1771    0.0000 N   0  0  0  0  0  0  0  0  0  0  0  0
   -1.9140   -1.9635    0.0000 N   0  0  0  0  0  0  0  0  0  0  0  0
   -1.0323   -0.7500    0.0000 C   0  0  0  0  0  0  0  0  0  0  0  0
   -1.0323    0.7500    0.0000 S   0  0  0  0  0  0  0  0  0  0  0  0
    1.6078   -3.5952    0.0000 C   0  0  0  0  0  0  0  0  0  0  0  0
    1.4510   -5.0870    0.0000 C   0  0  0  0  0  0  0  0  0  0  0  0
    2.6646   -5.9687    0.0000 C   0  0  0  0  0  0  0  0  0  0  0  0
    4.0349   -5.3586    0.0000 C   0  0  0  0  0  0  0  0  0  0  0  0
    4.1917   -3.8668    0.0000 C   0  0  0  0  0  0  0  0  0  0  0  0
    2.9781   -2.9851    0.0000 C   0  0  0  0  0  0  0  0  0  0  0  0
    4.7193    6.1170    0.0000 C   0  0  0  0  0  0  0  0  0  0  0  0
  1  2  1  0
  2  3  1  0
  3  4  2  0
  4  5  1  0
  5  6  2  0
  6  7  1  0
  7  8  1  0
  8  9  1  0
  9 10  1  0
 10 11  2  0
 10 12  1  0
 12 13  2  0
 13 14  1  0
 14 15  1  0
 15 16  2  0
 16 17  1  0
 17 18  1  0
 18 19  1  0
 15 20  1  0
 20 21  2  0
 21 22  1  0
 22 23  2  0
 23 24  1  0
 24 25  2  0
  7 26  2  0
 26  3  1  0
 19 12  1  0
 18 14  2  0
 25 20  1  0
M  END
>  <Molecule>  (16) 
CHEMBL1987009

>  <Standard Type>  (16) 
Ki

>  <Standard Relation>  (16) 
>

>  <Standard Value>  (16) 
1584.89

>  <Standard Units>  (16) 
nM

>  <pChEMBL Value>  (16) 
nan

>  <Comment>  (16) 
inactive

>  <Compound Key>  (16) 
SID103904702

>  <Assay>  (16) 
CHEMBL1963742

>  <Assay Description>  (16) 
PUBCHEM_BIOASSAY: Navigating the Kinome. (Class of assay: other) Panel member name: JAK3

>  <BAO Format>  (16) 
assay format

>  <Target>  (16) 
CHEMBL2148

>  <Target Pref. Name>  (16) 
Tyrosine-protein kinase JAK3

>  <Target Organism>  (16) 
Homo sapiens

>  <Target Type>  (16) 
SINGLE PROTEIN

>  <Document>  (16) 
CHEMBL1201862

>  <Source>  (16) 
PubChem BioAssays

>  <Max Phase>  (16) 
0

>  <#Ro5 Violations>  (16) 
0

>  <Molecular Weight>  (16) 
363.44

>  <Ligand Efficiency BEI>  (16) 
nan

>  <Ligand Efficiency LE>  (16) 
nan

>  <Ligand Efficiency LLE>  (16) 
nan

>  <Ligand Efficiency SEI>  (16) 
nan

>  <ALogP>  (16) 
4.23

>  <Assay Organism>  (16) 
nan

>  <Assay Tissue ChEMBL ID>  (16) 
nan

>  <Assay Tissue Name>  (16) 
nan

>  <Assay Cell Type>  (16) 
nan

>  <Assay Subcellular Fraction>  (16) 
nan

>  <Organism Tax ID>  (16) 
9606

>  <BAO Format ID>  (16) 
BAO_0000019

>  <Published Type>  (16) 
nan

>  <Published Relation>  (16) 
nan

>  <Published Value>  (16) 
nan

>  <Published Units>  (16) 
nan

>  <Canonical Smiles>  (16) 
COc1cccc(CNC(=O)c2cc3c(n[nH]c3s2)c4ccccc4)c1

>  <Data Validity Comment>  (16) 
nan

>  <Document Journal>  (16) 
nan

>  <Document Year>  (16) 
nan

>  <SRC ID>  (16) 
7

>  <UO Units>  (16) 
UO_0000065

>  <Potential Duplicate>  (16) 
False

>  <Class>  (16) 
0

$$$$

     RDKit          2D

 30 33  0  0  0  0  0  0  0  0999 V2000
  -14.8535    4.4545    0.0000 F   0  0  0  0  0  0  0  0  0  0  0  0
  -13.7388    3.4509    0.0000 C   0  0  0  0  0  0  0  0  0  0  0  0
  -12.3122    3.9144    0.0000 C   0  0  0  0  0  0  0  0  0  0  0  0
  -11.1975    2.9107    0.0000 C   0  0  0  0  0  0  0  0  0  0  0  0
  -11.5094    1.4435    0.0000 C   0  0  0  0  0  0  0  0  0  0  0  0
  -10.3946    0.4398    0.0000 N   0  0  0  0  0  0  0  0  0  0  0  0
   -8.9681    0.9033    0.0000 C   0  0  0  0  0  0  0  0  0  0  0  0
   -8.6562    2.3705    0.0000 O   0  0  0  0  0  0  0  0  0  0  0  0
   -7.8533   -0.1004    0.0000 N   0  0  0  0  0  0  0  0  0  0  0  0
   -6.4268    0.3631    0.0000 C   0  0  0  0  0  0  0  0  0  0  0  0
   -5.3120   -0.6406    0.0000 C   0  0  0  0  0  0  0  0  0  0  0  0
   -3.8855   -0.1771    0.0000 C   0  0  0  0  0  0  0  0  0  0  0  0
   -3.5736    1.2902    0.0000 C   0  0  0  0  0  0  0  0  0  0  0  0
   -4.6883    2.2939    0.0000 C   0  0  0  0  0  0  0  0  0  0  0  0
   -6.1149    1.8303    0.0000 C   0  0  0  0  0  0  0  0  0  0  0  0
   -2.1470    1.7537    0.0000 C   0  0  0  0  0  0  0  0  0  0  0  0
   -1.8351    3.2209    0.0000 C   0  0  0  0  0  0  0  0  0  0  0  0
   -0.4086    3.6844    0.0000 C   0  0  0  0  0  0  0  0  0  0  0  0
    0.7062    2.6807    0.0000 C   0  0  0  0  0  0  0  0  0  0  0  0
    0.3943    1.2135    0.0000 C   0  0  0  0  0  0  0  0  0  0  0  0
    1.2760    0.0000    0.0000 S   0  0  0  0  0  0  0  0  0  0  0  0
    0.3943   -1.2135    0.0000 N   0  0  0  0  0  0  0  0  0  0  0  0
   -1.0323   -0.7500    0.0000 C   0  0  0  0  0  0  0  0  0  0  0  0
   -1.0323    0.7500    0.0000 C   0  0  0  0  0  0  0  0  0  0  0  0
  -12.9359    0.9799    0.0000 C   0  0  0  0  0  0  0  0  0  0  0  0
  -14.0507    1.9836    0.0000 C   0  0  0  0  0  0  0  0  0  0  0  0
  -15.4772    1.5201    0.0000 C   0  0  0  0  0  0  0  0  0  0  0  0
  -16.9038    1.0566    0.0000 F   0  0  0  0  0  0  0  0  0  0  0  0
  -15.0137    0.0935    0.0000 F   0  0  0  0  0  0  0  0  0  0  0  0
  -15.9408    2.9467    0.0000 F   0  0  0  0  0  0  0  0  0  0  0  0
  1  2  1  0
  2  3  2  0
  3  4  1  0
  4  5  2  0
  5  6  1  0
  6  7  1  0
  7  8  2  0
  7  9  1  0
  9 10  1  0
 10 11  2  0
 11 12  1  0
 12 13  2  0
 13 14  1  0
 14 15  2  0
 13 16  1  0
 16 17  2  0
 17 18  1  0
 18 19  2  0
 19 20  1  0
 20 21  1  0
 21 22  1  0
 22 23  2  0
 23 24  1  0
  5 25  1  0
 25 26  2  0
 26 27  1  0
 27 28  1  0
 27 29  1  0
 27 30  1  0
 26  2  1  0
 15 10  1  0
 24 16  1  0
 24 20  2  0
M  END
>  <Molecule>  (17) 
CHEMBL2000801

>  <Standard Type>  (17) 
Ki

>  <Standard Relation>  (17) 
>

>  <Standard Value>  (17) 
1584.89

>  <Standard Units>  (17) 
nM

>  <pChEMBL Value>  (17) 
nan

>  <Comment>  (17) 
inactive

>  <Compound Key>  (17) 
SID103904379

>  <Assay>  (17) 
CHEMBL1963742

>  <Assay Description>  (17) 
PUBCHEM_BIOASSAY: Navigating the Kinome. (Class of assay: other) Panel member name: JAK3

>  <BAO Format>  (17) 
assay format

>  <Target>  (17) 
CHEMBL2148

>  <Target Pref. Name>  (17) 
Tyrosine-protein kinase JAK3

>  <Target Organism>  (17) 
Homo sapiens

>  <Target Type>  (17) 
SINGLE PROTEIN

>  <Document>  (17) 
CHEMBL1201862

>  <Source>  (17) 
PubChem BioAssays

>  <Max Phase>  (17) 
0

>  <#Ro5 Violations>  (17) 
1

>  <Molecular Weight>  (17) 
431.41

>  <Ligand Efficiency BEI>  (17) 
nan

>  <Ligand Efficiency LE>  (17) 
nan

>  <Ligand Efficiency LLE>  (17) 
nan

>  <Ligand Efficiency SEI>  (17) 
nan

>  <ALogP>  (17) 
6.77

>  <Assay Organism>  (17) 
nan

>  <Assay Tissue ChEMBL ID>  (17) 
nan

>  <Assay Tissue Name>  (17) 
nan

>  <Assay Cell Type>  (17) 
nan

>  <Assay Subcellular Fraction>  (17) 
nan

>  <Organism Tax ID>  (17) 
9606

>  <BAO Format ID>  (17) 
BAO_0000019

>  <Published Type>  (17) 
nan

>  <Published Relation>  (17) 
nan

>  <Published Value>  (17) 
nan

>  <Published Units>  (17) 
nan

>  <Canonical Smiles>  (17) 
Fc1ccc(NC(=O)Nc2ccc(cc2)c3cccc4sncc34)cc1C(F)(F)F

>  <Data Validity Comment>  (17) 
nan

>  <Document Journal>  (17) 
nan

>  <Document Year>  (17) 
nan

>  <SRC ID>  (17) 
7

>  <UO Units>  (17) 
UO_0000065

>  <Potential Duplicate>  (17) 
False

>  <Class>  (17) 
0

$$$$

     RDKit          2D

 27 30  0  0  0  0  0  0  0  0999 V2000
   -0.7500   -6.4952    0.0000 C   0  0  0  0  0  0  0  0  0  0  0  0
    0.7500   -6.4952    0.0000 O   0  0  0  0  0  0  0  0  0  0  0  0
    1.5000   -5.1962    0.0000 C   0  0  0  0  0  0  0  0  0  0  0  0
    0.7500   -3.8971    0.0000 C   0  0  0  0  0  0  0  0  0  0  0  0
    1.5000   -2.5981    0.0000 C   0  0  0  0  0  0  0  0  0  0  0  0
    3.0000   -2.5981    0.0000 C   0  0  0  0  0  0  0  0  0  0  0  0
    3.7500   -3.8971    0.0000 C   0  0  0  0  0  0  0  0  0  0  0  0
    3.0000   -5.1962    0.0000 C   0  0  0  0  0  0  0  0  0  0  0  0
    3.7500   -6.4952    0.0000 O   0  0  0  0  0  0  0  0  0  0  0  0
    0.7500   -1.2990    0.0000 C   0  0  0  0  0  0  0  0  0  0  0  0
    1.5000    0.0000    0.0000 C   0  0  0  0  0  0  0  0  0  0  0  0
    0.7500    1.2990    0.0000 C   0  0  0  0  0  0  0  0  0  0  0  0
   -0.7500    1.2990    0.0000 C   0  0  0  0  0  0  0  0  0  0  0  0
   -1.7537    2.4138    0.0000 N   0  0  0  0  0  0  0  0  0  0  0  0
   -3.1240    1.8037    0.0000 N   0  0  0  0  0  0  0  0  0  0  0  0
   -2.9672    0.3119    0.0000 C   0  0  0  0  0  0  0  0  0  0  0  0
   -4.0819   -0.6918    0.0000 C   0  0  0  0  0  0  0  0  0  0  0  0
   -3.7701   -2.1590    0.0000 O   0  0  0  0  0  0  0  0  0  0  0  0
   -5.5085   -0.2283    0.0000 N   0  0  0  0  0  0  0  0  0  0  0  0
   -6.6232   -1.2320    0.0000 C   0  0  0  0  0  0  0  0  0  0  0  0
   -8.0498   -0.7685    0.0000 C   0  0  0  0  0  0  0  0  0  0  0  0
   -9.1645   -1.7722    0.0000 C   0  0  0  0  0  0  0  0  0  0  0  0
   -8.8527   -3.2394    0.0000 C   0  0  0  0  0  0  0  0  0  0  0  0
   -7.4261   -3.7029    0.0000 C   0  0  0  0  0  0  0  0  0  0  0  0
   -6.3114   -2.6992    0.0000 C   0  0  0  0  0  0  0  0  0  0  0  0
   -1.5000    0.0000    0.0000 C   0  0  0  0  0  0  0  0  0  0  0  0
   -0.7500   -1.2990    0.0000 C   0  0  0  0  0  0  0  0  0  0  0  0
  1  2  1  0
  2  3  1  0
  3  4  2  0
  4  5  1  0
  5  6  2  0
  6  7  1  0
  7  8  2  0
  8  9  1  0
  5 10  1  0
 10 11  2  0
 11 12  1  0
 12 13  2  0
 13 14  1  0
 14 15  1  0
 15 16  2  0
 16 17  1  0
 17 18  2  0
 17 19  1  0
 19 20  1  0
 20 21  2  0
 21 22  1  0
 22 23  2  0
 23 24  1  0
 24 25  2  0
 16 26  1  0
 26 27  2  0
  8  3  1  0
 27 10  1  0
 26 13  1  0
 25 20  1  0
M  END
>  <Molecule>  (18) 
CHEMBL2007002

>  <Standard Type>  (18) 
Ki

>  <Standard Relation>  (18) 
>

>  <Standard Value>  (18) 
1584.89

>  <Standard Units>  (18) 
nM

>  <pChEMBL Value>  (18) 
nan

>  <Comment>  (18) 
inactive

>  <Compound Key>  (18) 
SID103904737

>  <Assay>  (18) 
CHEMBL1963742

>  <Assay Description>  (18) 
PUBCHEM_BIOASSAY: Navigating the Kinome. (Class of assay: other) Panel member name: JAK3

>  <BAO Format>  (18) 
assay format

>  <Target>  (18) 
CHEMBL2148

>  <Target Pref. Name>  (18) 
Tyrosine-protein kinase JAK3

>  <Target Organism>  (18) 
Homo sapiens

>  <Target Type>  (18) 
SINGLE PROTEIN

>  <Document>  (18) 
CHEMBL1201862

>  <Source>  (18) 
PubChem BioAssays

>  <Max Phase>  (18) 
0

>  <#Ro5 Violations>  (18) 
0

>  <Molecular Weight>  (18) 
359.39

>  <Ligand Efficiency BEI>  (18) 
nan

>  <Ligand Efficiency LE>  (18) 
nan

>  <Ligand Efficiency LLE>  (18) 
nan

>  <Ligand Efficiency SEI>  (18) 
nan

>  <ALogP>  (18) 
4.2

>  <Assay Organism>  (18) 
nan

>  <Assay Tissue ChEMBL ID>  (18) 
nan

>  <Assay Tissue Name>  (18) 
nan

>  <Assay Cell Type>  (18) 
nan

>  <Assay Subcellular Fraction>  (18) 
nan

>  <Organism Tax ID>  (18) 
9606

>  <BAO Format ID>  (18) 
BAO_0000019

>  <Published Type>  (18) 
nan

>  <Published Relation>  (18) 
nan

>  <Published Value>  (18) 
nan

>  <Published Units>  (18) 
nan

>  <Canonical Smiles>  (18) 
COc1cc(ccc1O)c2ccc3[nH]nc(C(=O)Nc4ccccc4)c3c2

>  <Data Validity Comment>  (18) 
nan

>  <Document Journal>  (18) 
nan

>  <Document Year>  (18) 
nan

>  <SRC ID>  (18) 
7

>  <UO Units>  (18) 
UO_0000065

>  <Potential Duplicate>  (18) 
False

>  <Class>  (18) 
0

$$$$

     RDKit          2D

 24 27  0  0  0  0  0  0  0  0999 V2000
    4.1791    8.6583    0.0000 C   0  0  0  0  0  0  0  0  0  0  0  0
    3.7156    7.2317    0.0000 N   0  0  0  0  0  0  0  0  0  0  0  0
    4.7193    6.1170    0.0000 C   0  0  0  0  0  0  0  0  0  0  0  0
    4.2558    4.6904    0.0000 C   0  0  0  0  0  0  0  0  0  0  0  0
    2.7886    4.3786    0.0000 C   0  0  0  0  0  0  0  0  0  0  0  0
    1.7849    5.4933    0.0000 C   0  0  0  0  0  0  0  0  0  0  0  0
    2.2484    6.9199    0.0000 C   0  0  0  0  0  0  0  0  0  0  0  0
    2.3250    2.9520    0.0000 N   0  0  0  0  0  0  0  0  0  0  0  0
    0.8578    2.6401    0.0000 C   0  0  0  0  0  0  0  0  0  0  0  0
   -0.1459    3.7548    0.0000 O   0  0  0  0  0  0  0  0  0  0  0  0
    0.3943    1.2135    0.0000 C   0  0  0  0  0  0  0  0  0  0  0  0
    1.2760    0.0000    0.0000 C   0  0  0  0  0  0  0  0  0  0  0  0
    0.3943   -1.2135    0.0000 C   0  0  0  0  0  0  0  0  0  0  0  0
    0.3943   -2.7135    0.0000 C   0  0  0  0  0  0  0  0  0  0  0  0
   -1.0323   -3.1771    0.0000 N   0  0  0  0  0  0  0  0  0  0  0  0
   -1.9140   -1.9635    0.0000 N   0  0  0  0  0  0  0  0  0  0  0  0
   -1.0323   -0.7500    0.0000 C   0  0  0  0  0  0  0  0  0  0  0  0
   -1.0323    0.7500    0.0000 S   0  0  0  0  0  0  0  0  0  0  0  0
    1.6078   -3.5952    0.0000 C   0  0  0  0  0  0  0  0  0  0  0  0
    1.4510   -5.0870    0.0000 C   0  0  0  0  0  0  0  0  0  0  0  0
    2.6646   -5.9687    0.0000 C   0  0  0  0  0  0  0  0  0  0  0  0
    4.0349   -5.3586    0.0000 C   0  0  0  0  0  0  0  0  0  0  0  0
    4.1917   -3.8668    0.0000 C   0  0  0  0  0  0  0  0  0  0  0  0
    2.9781   -2.9851    0.0000 C   0  0  0  0  0  0  0  0  0  0  0  0
  1  2  1  0
  2  3  1  0
  3  4  1  0
  4  5  1  0
  5  6  1  0
  6  7  1  0
  5  8  1  0
  8  9  1  0
  9 10  2  0
  9 11  1  0
 11 12  2  0
 12 13  1  0
 13 14  1  0
 14 15  2  0
 15 16  1  0
 16 17  1  0
 17 18  1  0
 14 19  1  0
 19 20  2  0
 20 21  1  0
 21 22  2  0
 22 23  1  0
 23 24  2  0
  7  2  1  0
 18 11  1  0
 17 13  2  0
 24 19  1  0
M  END
>  <Molecule>  (19) 
CHEMBL1987007

>  <Standard Type>  (19) 
Ki

>  <Standard Relation>  (19) 
>

>  <Standard Value>  (19) 
1584.89

>  <Standard Units>  (19) 
nM

>  <pChEMBL Value>  (19) 
nan

>  <Comment>  (19) 
inactive

>  <Compound Key>  (19) 
SID103904998

>  <Assay>  (19) 
CHEMBL1963742

>  <Assay Description>  (19) 
PUBCHEM_BIOASSAY: Navigating the Kinome. (Class of assay: other) Panel member name: JAK3

>  <BAO Format>  (19) 
assay format

>  <Target>  (19) 
CHEMBL2148

>  <Target Pref. Name>  (19) 
Tyrosine-protein kinase JAK3

>  <Target Organism>  (19) 
Homo sapiens

>  <Target Type>  (19) 
SINGLE PROTEIN

>  <Document>  (19) 
CHEMBL1201862

>  <Source>  (19) 
PubChem BioAssays

>  <Max Phase>  (19) 
0

>  <#Ro5 Violations>  (19) 
0

>  <Molecular Weight>  (19) 
340.45

>  <Ligand Efficiency BEI>  (19) 
nan

>  <Ligand Efficiency LE>  (19) 
nan

>  <Ligand Efficiency LLE>  (19) 
nan

>  <Ligand Efficiency SEI>  (19) 
nan

>  <ALogP>  (19) 
3.12

>  <Assay Organism>  (19) 
nan

>  <Assay Tissue ChEMBL ID>  (19) 
nan

>  <Assay Tissue Name>  (19) 
nan

>  <Assay Cell Type>  (19) 
nan

>  <Assay Subcellular Fraction>  (19) 
nan

>  <Organism Tax ID>  (19) 
9606

>  <BAO Format ID>  (19) 
BAO_0000019

>  <Published Type>  (19) 
nan

>  <Published Relation>  (19) 
nan

>  <Published Value>  (19) 
nan

>  <Published Units>  (19) 
nan

>  <Canonical Smiles>  (19) 
CN1CCC(CC1)NC(=O)c2cc3c(n[nH]c3s2)c4ccccc4

>  <Data Validity Comment>  (19) 
nan

>  <Document Journal>  (19) 
nan

>  <Document Year>  (19) 
nan

>  <SRC ID>  (19) 
7

>  <UO Units>  (19) 
UO_0000065

>  <Potential Duplicate>  (19) 
False

>  <Class>  (19) 
0

$$$$

     RDKit          2D

 36 41  0  0  0  0  0  0  0  0999 V2000
   -0.0000   -5.1073    0.0000 C   0  0  0  0  0  0  0  0  0  0  0  0
   -0.0000   -3.6073    0.0000 C   0  0  0  0  0  0  0  0  0  0  0  0
    1.2135   -2.7256    0.0000 C   0  0  0  0  0  0  0  0  0  0  0  0
    2.6401   -3.1891    0.0000 C   0  0  0  0  0  0  0  0  0  0  0  0
    2.9520   -4.6564    0.0000 C   0  0  0  0  0  0  0  0  0  0  0  0
    4.3786   -5.1199    0.0000 C   0  0  0  0  0  0  0  0  0  0  0  0
    5.4933   -4.1162    0.0000 C   0  0  0  0  0  0  0  0  0  0  0  0
    5.1814   -2.6490    0.0000 C   0  0  0  0  0  0  0  0  0  0  0  0
    6.2961   -1.6453    0.0000 O   0  0  0  0  0  0  0  0  0  0  0  0
    7.7227   -2.1088    0.0000 C   0  0  0  0  0  0  0  0  0  0  0  0
    8.8374   -1.1051    0.0000 C   0  0  0  0  0  0  0  0  0  0  0  0
   10.2640   -1.5686    0.0000 C   0  0  0  0  0  0  0  0  0  0  0  0
   11.3787   -0.5649    0.0000 C   0  0  0  0  0  0  0  0  0  0  0  0
   11.0669    0.9023    0.0000 C   0  0  0  0  0  0  0  0  0  0  0  0
    9.6403    1.3658    0.0000 C   0  0  0  0  0  0  0  0  0  0  0  0
    8.5256    0.3621    0.0000 C   0  0  0  0  0  0  0  0  0  0  0  0
    3.7548   -2.1855    0.0000 C   0  0  0  0  0  0  0  0  0  0  0  0
    0.7500   -1.2990    0.0000 C   0  0  0  0  0  0  0  0  0  0  0  0
    1.5000    0.0000    0.0000 C   0  0  0  0  0  0  0  0  0  0  0  0
    3.0000    0.0000    0.0000 N   0  0  0  0  0  0  0  0  0  0  0  0
    0.7500    1.2990    0.0000 N   0  0  0  0  0  0  0  0  0  0  0  0
   -0.7500    1.2990    0.0000 C   0  0  0  0  0  0  0  0  0  0  0  0
   -1.5000    0.0000    0.0000 N   0  0  0  0  0  0  0  0  0  0  0  0
   -0.7500   -1.2990    0.0000 C   0  0  0  0  0  0  0  0  0  0  0  0
   -1.2135   -2.7256    0.0000 N   0  0  0  0  0  0  0  0  0  0  0  0
   -2.6401   -3.1891    0.0000 C   0  0  0  0  0  0  0  0  0  0  0  0
   -3.7548   -2.1855    0.0000 C   0  0  0  0  0  0  0  0  0  0  0  0
   -5.1814   -2.6490    0.0000 C   0  0  0  0  0  0  0  0  0  0  0  0
   -5.4933   -4.1162    0.0000 C   0  0  0  0  0  0  0  0  0  0  0  0
   -4.3786   -5.1199    0.0000 C   0  0  0  0  0  0  0  0  0  0  0  0
   -2.9520   -4.6564    0.0000 C   0  0  0  0  0  0  0  0  0  0  0  0
   -6.9199   -4.5797    0.0000 N   0  0  0  0  0  0  0  0  0  0  0  0
   -7.3834   -6.0063    0.0000 C   0  0  0  0  0  0  0  0  0  0  0  0
   -8.8834   -6.0063    0.0000 C   0  0  0  0  0  0  0  0  0  0  0  0
   -9.3469   -4.5797    0.0000 C   0  0  0  0  0  0  0  0  0  0  0  0
   -8.1334   -3.6980    0.0000 C   0  0  0  0  0  0  0  0  0  0  0  0
  1  2  1  0
  2  3  2  0
  3  4  1  0
  4  5  2  0
  5  6  1  0
  6  7  2  0
  7  8  1  0
  8  9  1  0
  9 10  1  0
 10 11  1  0
 11 12  2  0
 12 13  1  0
 13 14  2  0
 14 15  1  0
 15 16  2  0
  8 17  2  0
  3 18  1  0
 18 19  2  0
 19 20  1  0
 19 21  1  0
 21 22  2  0
 22 23  1  0
 23 24  2  0
 24 25  1  0
 25 26  1  0
 26 27  1  0
 27 28  1  0
 28 29  1  0
 29 30  1  0
 30 31  1  0
 29 32  1  0
 32 33  1  0
 33 34  1  0
 34 35  1  0
 35 36  1  0
 25  2  1  0
 17  4  1  0
 16 11  1  0
 24 18  1  0
 31 26  1  0
 36 32  1  0
M  END
>  <Molecule>  (20) 
CHEMBL2007151

>  <Standard Type>  (20) 
Ki

>  <Standard Relation>  (20) 
>

>  <Standard Value>  (20) 
1584.89

>  <Standard Units>  (20) 
nM

>  <pChEMBL Value>  (20) 
nan

>  <Comment>  (20) 
inactive

>  <Compound Key>  (20) 
SID103904994

>  <Assay>  (20) 
CHEMBL1963742

>  <Assay Description>  (20) 
PUBCHEM_BIOASSAY: Navigating the Kinome. (Class of assay: other) Panel member name: JAK3

>  <BAO Format>  (20) 
assay format

>  <Target>  (20) 
CHEMBL2148

>  <Target Pref. Name>  (20) 
Tyrosine-protein kinase JAK3

>  <Target Organism>  (20) 
Homo sapiens

>  <Target Type>  (20) 
SINGLE PROTEIN

>  <Document>  (20) 
CHEMBL1201862

>  <Source>  (20) 
PubChem BioAssays

>  <Max Phase>  (20) 
0

>  <#Ro5 Violations>  (20) 
1

>  <Molecular Weight>  (20) 
481.64

>  <Ligand Efficiency BEI>  (20) 
nan

>  <Ligand Efficiency LE>  (20) 
nan

>  <Ligand Efficiency LLE>  (20) 
nan

>  <Ligand Efficiency SEI>  (20) 
nan

>  <ALogP>  (20) 
6.15

>  <Assay Organism>  (20) 
nan

>  <Assay Tissue ChEMBL ID>  (20) 
nan

>  <Assay Tissue Name>  (20) 
nan

>  <Assay Cell Type>  (20) 
nan

>  <Assay Subcellular Fraction>  (20) 
nan

>  <Organism Tax ID>  (20) 
9606

>  <BAO Format ID>  (20) 
BAO_0000019

>  <Published Type>  (20) 
nan

>  <Published Relation>  (20) 
nan

>  <Published Value>  (20) 
nan

>  <Published Units>  (20) 
nan

>  <Canonical Smiles>  (20) 
Cc1c(c2cccc(OCc3ccccc3)c2)c4c(N)ncnc4n1C5CCC(CC5)N6CCCC6

>  <Data Validity Comment>  (20) 
nan

>  <Document Journal>  (20) 
nan

>  <Document Year>  (20) 
nan

>  <SRC ID>  (20) 
7

>  <UO Units>  (20) 
UO_0000065

>  <Potential Duplicate>  (20) 
False

>  <Class>  (20) 
0

$$$$

     RDKit          2D

 21 24  0  0  0  0  0  0  0  0999 V2000
   -4.4752    7.7937    0.0000 N   0  0  0  0  0  0  0  0  0  0  0  0
   -3.3605    8.7974    0.0000 C   0  0  0  0  0  0  0  0  0  0  0  0
   -1.9339    8.3339    0.0000 C   0  0  0  0  0  0  0  0  0  0  0  0
   -0.8192    9.3376    0.0000 C   0  0  0  0  0  0  0  0  0  0  0  0
   -1.1311   10.8048    0.0000 C   0  0  0  0  0  0  0  0  0  0  0  0
   -2.5577   11.2683    0.0000 C   0  0  0  0  0  0  0  0  0  0  0  0
   -3.6724   10.2646    0.0000 C   0  0  0  0  0  0  0  0  0  0  0  0
   -4.1634    6.3265    0.0000 C   0  0  0  0  0  0  0  0  0  0  0  0
   -2.7931    5.7164    0.0000 N   0  0  0  0  0  0  0  0  0  0  0  0
   -2.9499    4.2246    0.0000 C   0  0  0  0  0  0  0  0  0  0  0  0
   -4.4171    3.9127    0.0000 C   0  0  0  0  0  0  0  0  0  0  0  0
   -5.1671    5.2118    0.0000 S   0  0  0  0  0  0  0  0  0  0  0  0
   -1.8351    3.2209    0.0000 C   0  0  0  0  0  0  0  0  0  0  0  0
   -0.4086    3.6844    0.0000 C   0  0  0  0  0  0  0  0  0  0  0  0
    0.7062    2.6807    0.0000 C   0  0  0  0  0  0  0  0  0  0  0  0
    0.3943    1.2135    0.0000 C   0  0  0  0  0  0  0  0  0  0  0  0
    1.2760    0.0000    0.0000 N   0  0  0  0  0  0  0  0  0  0  0  0
    0.3943   -1.2135    0.0000 N   0  0  0  0  0  0  0  0  0  0  0  0
   -1.0323   -0.7500    0.0000 C   0  0  0  0  0  0  0  0  0  0  0  0
   -1.0323    0.7500    0.0000 C   0  0  0  0  0  0  0  0  0  0  0  0
   -2.1470    1.7537    0.0000 C   0  0  0  0  0  0  0  0  0  0  0  0
  1  2  1  0
  2  3  2  0
  3  4  1  0
  4  5  2  0
  5  6  1  0
  6  7  2  0
  1  8  1  0
  8  9  2  0
  9 10  1  0
 10 11  2  0
 11 12  1  0
 10 13  1  0
 13 14  2  0
 14 15  1  0
 15 16  2  0
 16 17  1  0
 17 18  1  0
 18 19  2  0
 19 20  1  0
 20 21  2  0
  7  2  1  0
 12  8  1  0
 21 13  1  0
 20 16  1  0
M  END
>  <Molecule>  (21) 
CHEMBL1682545

>  <Standard Type>  (21) 
Ki

>  <Standard Relation>  (21) 
>

>  <Standard Value>  (21) 
1584.89

>  <Standard Units>  (21) 
nM

>  <pChEMBL Value>  (21) 
nan

>  <Comment>  (21) 
inactive

>  <Compound Key>  (21) 
SID103904520

>  <Assay>  (21) 
CHEMBL1963742

>  <Assay Description>  (21) 
PUBCHEM_BIOASSAY: Navigating the Kinome. (Class of assay: other) Panel member name: JAK3

>  <BAO Format>  (21) 
assay format

>  <Target>  (21) 
CHEMBL2148

>  <Target Pref. Name>  (21) 
Tyrosine-protein kinase JAK3

>  <Target Organism>  (21) 
Homo sapiens

>  <Target Type>  (21) 
SINGLE PROTEIN

>  <Document>  (21) 
CHEMBL1201862

>  <Source>  (21) 
PubChem BioAssays

>  <Max Phase>  (21) 
0

>  <#Ro5 Violations>  (21) 
0

>  <Molecular Weight>  (21) 
292.37

>  <Ligand Efficiency BEI>  (21) 
nan

>  <Ligand Efficiency LE>  (21) 
nan

>  <Ligand Efficiency LLE>  (21) 
nan

>  <Ligand Efficiency SEI>  (21) 
nan

>  <ALogP>  (21) 
4.43

>  <Assay Organism>  (21) 
nan

>  <Assay Tissue ChEMBL ID>  (21) 
nan

>  <Assay Tissue Name>  (21) 
nan

>  <Assay Cell Type>  (21) 
nan

>  <Assay Subcellular Fraction>  (21) 
nan

>  <Organism Tax ID>  (21) 
9606

>  <BAO Format ID>  (21) 
BAO_0000019

>  <Published Type>  (21) 
nan

>  <Published Relation>  (21) 
nan

>  <Published Value>  (21) 
nan

>  <Published Units>  (21) 
nan

>  <Canonical Smiles>  (21) 
N(c1ccccc1)c2nc(cs2)c3ccc4[nH]ncc4c3

>  <Data Validity Comment>  (21) 
nan

>  <Document Journal>  (21) 
nan

>  <Document Year>  (21) 
nan

>  <SRC ID>  (21) 
7

>  <UO Units>  (21) 
UO_0000065

>  <Potential Duplicate>  (21) 
False

>  <Class>  (21) 
0

$$$$

     RDKit          2D

 25 27  0  0  0  0  0  0  0  0999 V2000
    3.7500   -1.2990    0.0000 C   0  0  0  0  0  0  0  0  0  0  0  0
    3.0000    0.0000    0.0000 O   0  0  0  0  0  0  0  0  0  0  0  0
    1.5000    0.0000    0.0000 C   0  0  0  0  0  0  0  0  0  0  0  0
    0.7500   -1.2990    0.0000 C   0  0  0  0  0  0  0  0  0  0  0  0
   -0.7500   -1.2990    0.0000 C   0  0  0  0  0  0  0  0  0  0  0  0
   -1.5000    0.0000    0.0000 C   0  0  0  0  0  0  0  0  0  0  0  0
   -0.7500    1.2990    0.0000 C   0  0  0  0  0  0  0  0  0  0  0  0
    0.7500    1.2990    0.0000 C   0  0  0  0  0  0  0  0  0  0  0  0
    1.5000    2.5981    0.0000 C   0  0  0  0  0  0  0  0  0  0  0  0
    3.0000    2.5981    0.0000 C   0  0  0  0  0  0  0  0  0  0  0  0
    3.7500    3.8971    0.0000 C   0  0  0  0  0  0  0  0  0  0  0  0
    3.0000    5.1962    0.0000 N   0  0  0  0  0  0  0  0  0  0  0  0
    1.5000    5.1962    0.0000 C   0  0  0  0  0  0  0  0  0  0  0  0
    0.7500    6.4952    0.0000 N   0  0  0  0  0  0  0  0  0  0  0  0
    1.5000    7.7942    0.0000 C   0  0  0  0  0  0  0  0  0  0  0  0
    3.0000    7.7942    0.0000 C   0  0  0  0  0  0  0  0  0  0  0  0
    3.7500    9.0933    0.0000 C   0  0  0  0  0  0  0  0  0  0  0  0
    3.0000   10.3923    0.0000 C   0  0  0  0  0  0  0  0  0  0  0  0
    1.5000   10.3923    0.0000 C   0  0  0  0  0  0  0  0  0  0  0  0
    0.7500    9.0933    0.0000 C   0  0  0  0  0  0  0  0  0  0  0  0
    0.7500   11.6913    0.0000 S   0  0  0  0  0  0  0  0  0  0  0  0
   -0.5490   10.9413    0.0000 O   0  0  0  0  0  0  0  0  0  0  0  0
    2.0490   12.4413    0.0000 O   0  0  0  0  0  0  0  0  0  0  0  0
   -0.0000   12.9904    0.0000 C   0  0  0  0  0  0  0  0  0  0  0  0
    0.7500    3.8971    0.0000 N   0  0  0  0  0  0  0  0  0  0  0  0
  1  2  1  0
  2  3  1  0
  3  4  2  0
  4  5  1  0
  5  6  2  0
  6  7  1  0
  7  8  2  0
  8  9  1  0
  9 10  2  0
 10 11  1  0
 11 12  2  0
 12 13  1  0
 13 14  1  0
 14 15  1  0
 15 16  2  0
 16 17  1  0
 17 18  2  0
 18 19  1  0
 19 20  2  0
 19 21  1  0
 21 22  2  0
 21 23  2  0
 21 24  1  0
 13 25  2  0
  8  3  1  0
 25  9  1  0
 20 15  1  0
M  END
>  <Molecule>  (22) 
CHEMBL1975903

>  <Standard Type>  (22) 
Ki

>  <Standard Relation>  (22) 
>

>  <Standard Value>  (22) 
5011.87

>  <Standard Units>  (22) 
nM

>  <pChEMBL Value>  (22) 
nan

>  <Comment>  (22) 
inactive

>  <Compound Key>  (22) 
SID103904801

>  <Assay>  (22) 
CHEMBL1963742

>  <Assay Description>  (22) 
PUBCHEM_BIOASSAY: Navigating the Kinome. (Class of assay: other) Panel member name: JAK3

>  <BAO Format>  (22) 
assay format

>  <Target>  (22) 
CHEMBL2148

>  <Target Pref. Name>  (22) 
Tyrosine-protein kinase JAK3

>  <Target Organism>  (22) 
Homo sapiens

>  <Target Type>  (22) 
SINGLE PROTEIN

>  <Document>  (22) 
CHEMBL1201862

>  <Source>  (22) 
PubChem BioAssays

>  <Max Phase>  (22) 
0

>  <#Ro5 Violations>  (22) 
0

>  <Molecular Weight>  (22) 
355.42

>  <Ligand Efficiency BEI>  (22) 
nan

>  <Ligand Efficiency LE>  (22) 
nan

>  <Ligand Efficiency LLE>  (22) 
nan

>  <Ligand Efficiency SEI>  (22) 
nan

>  <ALogP>  (22) 
3.3

>  <Assay Organism>  (22) 
nan

>  <Assay Tissue ChEMBL ID>  (22) 
nan

>  <Assay Tissue Name>  (22) 
nan

>  <Assay Cell Type>  (22) 
nan

>  <Assay Subcellular Fraction>  (22) 
nan

>  <Organism Tax ID>  (22) 
9606

>  <BAO Format ID>  (22) 
BAO_0000019

>  <Published Type>  (22) 
nan

>  <Published Relation>  (22) 
nan

>  <Published Value>  (22) 
nan

>  <Published Units>  (22) 
nan

>  <Canonical Smiles>  (22) 
COc1ccccc1c2ccnc(Nc3cccc(c3)S(=O)(=O)C)n2

>  <Data Validity Comment>  (22) 
nan

>  <Document Journal>  (22) 
nan

>  <Document Year>  (22) 
nan

>  <SRC ID>  (22) 
7

>  <UO Units>  (22) 
UO_0000065

>  <Potential Duplicate>  (22) 
False

>  <Class>  (22) 
0

$$$$

     RDKit          2D

 26 29  0  0  0  0  0  0  0  0999 V2000
   -0.5773   -4.2803    0.0000 C   0  0  0  0  0  0  0  0  0  0  0  0
    0.8899   -3.9684    0.0000 C   0  0  0  0  0  0  0  0  0  0  0  0
    2.0046   -4.9721    0.0000 N   0  0  0  0  0  0  0  0  0  0  0  0
    3.3037   -4.2221    0.0000 C   0  0  0  0  0  0  0  0  0  0  0  0
    4.6740   -4.8322    0.0000 N   0  0  0  0  0  0  0  0  0  0  0  0
    2.9918   -2.7549    0.0000 S   0  0  0  0  0  0  0  0  0  0  0  0
    1.5000   -2.5981    0.0000 C   0  0  0  0  0  0  0  0  0  0  0  0
    0.7500   -1.2990    0.0000 C   0  0  0  0  0  0  0  0  0  0  0  0
    1.5000    0.0000    0.0000 C   0  0  0  0  0  0  0  0  0  0  0  0
    0.7500    1.2990    0.0000 C   0  0  0  0  0  0  0  0  0  0  0  0
   -0.7500    1.2990    0.0000 N   0  0  0  0  0  0  0  0  0  0  0  0
   -1.5000    0.0000    0.0000 C   0  0  0  0  0  0  0  0  0  0  0  0
   -3.0000    0.0000    0.0000 N   0  0  0  0  0  0  0  0  0  0  0  0
   -3.7500    1.2990    0.0000 C   0  0  0  0  0  0  0  0  0  0  0  0
   -3.0000    2.5981    0.0000 C   0  0  0  0  0  0  0  0  0  0  0  0
   -3.7500    3.8971    0.0000 C   0  0  0  0  0  0  0  0  0  0  0  0
   -5.2500    3.8971    0.0000 C   0  0  0  0  0  0  0  0  0  0  0  0
   -6.0000    2.5981    0.0000 C   0  0  0  0  0  0  0  0  0  0  0  0
   -5.2500    1.2990    0.0000 C   0  0  0  0  0  0  0  0  0  0  0  0
   -6.0000    5.1962    0.0000 N   0  0  0  0  0  0  0  0  0  0  0  0
   -5.2500    6.4952    0.0000 C   0  0  0  0  0  0  0  0  0  0  0  0
   -6.0000    7.7942    0.0000 C   0  0  0  0  0  0  0  0  0  0  0  0
   -7.5000    7.7942    0.0000 O   0  0  0  0  0  0  0  0  0  0  0  0
   -8.2500    6.4952    0.0000 C   0  0  0  0  0  0  0  0  0  0  0  0
   -7.5000    5.1962    0.0000 C   0  0  0  0  0  0  0  0  0  0  0  0
   -0.7500   -1.2990    0.0000 N   0  0  0  0  0  0  0  0  0  0  0  0
  1  2  1  0
  2  3  1  0
  3  4  2  0
  4  5  1  0
  4  6  1  0
  6  7  1  0
  7  8  1  0
  8  9  2  0
  9 10  1  0
 10 11  2  0
 11 12  1  0
 12 13  1  0
 13 14  1  0
 14 15  2  0
 15 16  1  0
 16 17  2  0
 17 18  1  0
 18 19  2  0
 17 20  1  0
 20 21  1  0
 21 22  1  0
 22 23  1  0
 23 24  1  0
 24 25  1  0
 12 26  2  0
  7  2  2  0
 26  8  1  0
 19 14  1  0
 25 20  1  0
M  END
>  <Molecule>  (23) 
CHEMBL482967

>  <Standard Type>  (23) 
Ki

>  <Standard Relation>  (23) 
=

>  <Standard Value>  (23) 
630.96

>  <Standard Units>  (23) 
nM

>  <pChEMBL Value>  (23) 
6.2

>  <Comment>  (23) 
active

>  <Compound Key>  (23) 
SID103904403

>  <Assay>  (23) 
CHEMBL1963742

>  <Assay Description>  (23) 
PUBCHEM_BIOASSAY: Navigating the Kinome. (Class of assay: other) Panel member name: JAK3

>  <BAO Format>  (23) 
assay format

>  <Target>  (23) 
CHEMBL2148

>  <Target Pref. Name>  (23) 
Tyrosine-protein kinase JAK3

>  <Target Organism>  (23) 
Homo sapiens

>  <Target Type>  (23) 
SINGLE PROTEIN

>  <Document>  (23) 
CHEMBL1201862

>  <Source>  (23) 
PubChem BioAssays

>  <Max Phase>  (23) 
1

>  <#Ro5 Violations>  (23) 
0

>  <Molecular Weight>  (23) 
368.47

>  <Ligand Efficiency BEI>  (23) 
nan

>  <Ligand Efficiency LE>  (23) 
nan

>  <Ligand Efficiency LLE>  (23) 
nan

>  <Ligand Efficiency SEI>  (23) 
nan

>  <ALogP>  (23) 
3.07

>  <Assay Organism>  (23) 
nan

>  <Assay Tissue ChEMBL ID>  (23) 
nan

>  <Assay Tissue Name>  (23) 
nan

>  <Assay Cell Type>  (23) 
nan

>  <Assay Subcellular Fraction>  (23) 
nan

>  <Organism Tax ID>  (23) 
9606

>  <BAO Format ID>  (23) 
BAO_0000019

>  <Published Type>  (23) 
nan

>  <Published Relation>  (23) 
nan

>  <Published Value>  (23) 
nan

>  <Published Units>  (23) 
nan

>  <Canonical Smiles>  (23) 
Cc1nc(N)sc1c2ccnc(Nc3ccc(cc3)N4CCOCC4)n2

>  <Data Validity Comment>  (23) 
nan

>  <Document Journal>  (23) 
nan

>  <Document Year>  (23) 
nan

>  <SRC ID>  (23) 
7

>  <UO Units>  (23) 
UO_0000065

>  <Potential Duplicate>  (23) 
False

>  <Class>  (23) 
1

$$$$

     RDKit          2D

 16 18  0  0  0  0  0  0  0  0999 V2000
   -1.0567   -5.9808    0.0000 Cl  0  0  0  0  0  0  0  0  0  0  0  0
    0.1568   -5.0991    0.0000 C   0  0  0  0  0  0  0  0  0  0  0  0
    1.5271   -5.7092    0.0000 C   0  0  0  0  0  0  0  0  0  0  0  0
    2.7406   -4.8275    0.0000 C   0  0  0  0  0  0  0  0  0  0  0  0
    2.5838   -3.3357    0.0000 C   0  0  0  0  0  0  0  0  0  0  0  0
    3.7974   -2.4540    0.0000 Cl  0  0  0  0  0  0  0  0  0  0  0  0
    1.2135   -2.7256    0.0000 C   0  0  0  0  0  0  0  0  0  0  0  0
    0.7500   -1.2990    0.0000 C   0  0  0  0  0  0  0  0  0  0  0  0
    1.5000    0.0000    0.0000 N   0  0  0  0  0  0  0  0  0  0  0  0
    0.7500    1.2990    0.0000 C   0  0  0  0  0  0  0  0  0  0  0  0
   -0.7500    1.2990    0.0000 N   0  0  0  0  0  0  0  0  0  0  0  0
   -1.5000    0.0000    0.0000 C   0  0  0  0  0  0  0  0  0  0  0  0
   -3.0000    0.0000    0.0000 O   0  0  0  0  0  0  0  0  0  0  0  0
   -0.7500   -1.2990    0.0000 C   0  0  0  0  0  0  0  0  0  0  0  0
   -1.2135   -2.7256    0.0000 S   0  0  0  0  0  0  0  0  0  0  0  0
    0.0000   -3.6073    0.0000 C   0  0  0  0  0  0  0  0  0  0  0  0
  1  2  1  0
  2  3  2  0
  3  4  1  0
  4  5  2  0
  5  6  1  0
  5  7  1  0
  7  8  1  0
  8  9  1  0
  9 10  2  0
 10 11  1  0
 11 12  1  0
 12 13  2  0
 12 14  1  0
 14 15  1  0
 15 16  1  0
 16  2  1  0
 16  7  2  0
 14  8  2  0
M  END
>  <Molecule>  (24) 
CHEMBL583144

>  <Standard Type>  (24) 
Ki

>  <Standard Relation>  (24) 
>

>  <Standard Value>  (24) 
1584.89

>  <Standard Units>  (24) 
nM

>  <pChEMBL Value>  (24) 
nan

>  <Comment>  (24) 
inactive

>  <Compound Key>  (24) 
SID103905309

>  <Assay>  (24) 
CHEMBL1963742

>  <Assay Description>  (24) 
PUBCHEM_BIOASSAY: Navigating the Kinome. (Class of assay: other) Panel member name: JAK3

>  <BAO Format>  (24) 
assay format

>  <Target>  (24) 
CHEMBL2148

>  <Target Pref. Name>  (24) 
Tyrosine-protein kinase JAK3

>  <Target Organism>  (24) 
Homo sapiens

>  <Target Type>  (24) 
SINGLE PROTEIN

>  <Document>  (24) 
CHEMBL1201862

>  <Source>  (24) 
PubChem BioAssays

>  <Max Phase>  (24) 
0

>  <#Ro5 Violations>  (24) 
0

>  <Molecular Weight>  (24) 
271.13

>  <Ligand Efficiency BEI>  (24) 
nan

>  <Ligand Efficiency LE>  (24) 
nan

>  <Ligand Efficiency LLE>  (24) 
nan

>  <Ligand Efficiency SEI>  (24) 
nan

>  <ALogP>  (24) 
3.44

>  <Assay Organism>  (24) 
nan

>  <Assay Tissue ChEMBL ID>  (24) 
nan

>  <Assay Tissue Name>  (24) 
nan

>  <Assay Cell Type>  (24) 
nan

>  <Assay Subcellular Fraction>  (24) 
nan

>  <Organism Tax ID>  (24) 
9606

>  <BAO Format ID>  (24) 
BAO_0000019

>  <Published Type>  (24) 
nan

>  <Published Relation>  (24) 
nan

>  <Published Value>  (24) 
nan

>  <Published Units>  (24) 
nan

>  <Canonical Smiles>  (24) 
Clc1ccc(Cl)c2c3N=CNC(=O)c3sc12

>  <Data Validity Comment>  (24) 
nan

>  <Document Journal>  (24) 
nan

>  <Document Year>  (24) 
nan

>  <SRC ID>  (24) 
7

>  <UO Units>  (24) 
UO_0000065

>  <Potential Duplicate>  (24) 
False

>  <Class>  (24) 
0

$$$$

     RDKit          2D

 26 28  0  0  0  0  0  0  0  0999 V2000
    3.7500   -1.2990    0.0000 C   0  0  0  0  0  0  0  0  0  0  0  0
    3.0000    0.0000    0.0000 O   0  0  0  0  0  0  0  0  0  0  0  0
    1.5000    0.0000    0.0000 C   0  0  0  0  0  0  0  0  0  0  0  0
    0.7500   -1.2990    0.0000 C   0  0  0  0  0  0  0  0  0  0  0  0
   -0.7500   -1.2990    0.0000 C   0  0  0  0  0  0  0  0  0  0  0  0
   -1.5000    0.0000    0.0000 C   0  0  0  0  0  0  0  0  0  0  0  0
   -3.0000    0.0000    0.0000 C   0  0  0  0  0  0  0  0  0  0  0  0
   -3.7500   -1.2990    0.0000 N   0  0  0  0  0  0  0  0  0  0  0  0
   -5.2500   -1.2990    0.0000 C   0  0  0  0  0  0  0  0  0  0  0  0
   -6.0000    0.0000    0.0000 O   0  0  0  0  0  0  0  0  0  0  0  0
   -6.0000   -2.5981    0.0000 N   0  0  0  0  0  0  0  0  0  0  0  0
   -7.5000   -2.5981    0.0000 C   0  0  0  0  0  0  0  0  0  0  0  0
   -8.2500   -1.2990    0.0000 C   0  0  0  0  0  0  0  0  0  0  0  0
   -9.7500   -1.2990    0.0000 C   0  0  0  0  0  0  0  0  0  0  0  0
  -10.5000   -2.5981    0.0000 C   0  0  0  0  0  0  0  0  0  0  0  0
   -9.7500   -3.8971    0.0000 C   0  0  0  0  0  0  0  0  0  0  0  0
   -8.2500   -3.8971    0.0000 N   0  0  0  0  0  0  0  0  0  0  0  0
  -10.5000   -5.1962    0.0000 C   0  0  0  0  0  0  0  0  0  0  0  0
  -11.2500   -6.4952    0.0000 F   0  0  0  0  0  0  0  0  0  0  0  0
  -11.7990   -4.4462    0.0000 F   0  0  0  0  0  0  0  0  0  0  0  0
   -9.2010   -5.9462    0.0000 F   0  0  0  0  0  0  0  0  0  0  0  0
   -3.7500    1.2990    0.0000 C   0  0  0  0  0  0  0  0  0  0  0  0
   -3.0000    2.5981    0.0000 C   0  0  0  0  0  0  0  0  0  0  0  0
   -1.5000    2.5981    0.0000 N   0  0  0  0  0  0  0  0  0  0  0  0
   -0.7500    1.2990    0.0000 C   0  0  0  0  0  0  0  0  0  0  0  0
    0.7500    1.2990    0.0000 C   0  0  0  0  0  0  0  0  0  0  0  0
  1  2  1  0
  2  3  1  0
  3  4  2  0
  4  5  1  0
  5  6  2  0
  6  7  1  0
  7  8  1  0
  8  9  1  0
  9 10  2  0
  9 11  1  0
 11 12  1  0
 12 13  2  0
 13 14  1  0
 14 15  2  0
 15 16  1  0
 16 17  2  0
 16 18  1  0
 18 19  1  0
 18 20  1  0
 18 21  1  0
  7 22  2  0
 22 23  1  0
 23 24  2  0
 24 25  1  0
 25 26  2  0
 26  3  1  0
 25  6  1  0
 17 12  1  0
M  END
>  <Molecule>  (25) 
CHEMBL1982660

>  <Standard Type>  (25) 
Ki

>  <Standard Relation>  (25) 
>

>  <Standard Value>  (25) 
1584.89

>  <Standard Units>  (25) 
nM

>  <pChEMBL Value>  (25) 
nan

>  <Comment>  (25) 
inactive

>  <Compound Key>  (25) 
SID103904872

>  <Assay>  (25) 
CHEMBL1963742

>  <Assay Description>  (25) 
PUBCHEM_BIOASSAY: Navigating the Kinome. (Class of assay: other) Panel member name: JAK3

>  <BAO Format>  (25) 
assay format

>  <Target>  (25) 
CHEMBL2148

>  <Target Pref. Name>  (25) 
Tyrosine-protein kinase JAK3

>  <Target Organism>  (25) 
Homo sapiens

>  <Target Type>  (25) 
SINGLE PROTEIN

>  <Document>  (25) 
CHEMBL1201862

>  <Source>  (25) 
PubChem BioAssays

>  <Max Phase>  (25) 
0

>  <#Ro5 Violations>  (25) 
0

>  <Molecular Weight>  (25) 
362.31

>  <Ligand Efficiency BEI>  (25) 
nan

>  <Ligand Efficiency LE>  (25) 
nan

>  <Ligand Efficiency LLE>  (25) 
nan

>  <Ligand Efficiency SEI>  (25) 
nan

>  <ALogP>  (25) 
4.3

>  <Assay Organism>  (25) 
nan

>  <Assay Tissue ChEMBL ID>  (25) 
nan

>  <Assay Tissue Name>  (25) 
nan

>  <Assay Cell Type>  (25) 
nan

>  <Assay Subcellular Fraction>  (25) 
nan

>  <Organism Tax ID>  (25) 
9606

>  <BAO Format ID>  (25) 
BAO_0000019

>  <Published Type>  (25) 
nan

>  <Published Relation>  (25) 
nan

>  <Published Value>  (25) 
nan

>  <Published Units>  (25) 
nan

>  <Canonical Smiles>  (25) 
COc1ccc2c(NC(=O)Nc3cccc(n3)C(F)(F)F)ccnc2c1

>  <Data Validity Comment>  (25) 
nan

>  <Document Journal>  (25) 
nan

>  <Document Year>  (25) 
nan

>  <SRC ID>  (25) 
7

>  <UO Units>  (25) 
UO_0000065

>  <Potential Duplicate>  (25) 
False

>  <Class>  (25) 
0

$$$$

     RDKit          2D

 35 39  0  0  0  0  0  0  0  0999 V2000
    8.0406   12.1352    0.0000 C   0  0  0  0  0  0  0  0  0  0  0  0
    7.5771   10.7086    0.0000 C   0  0  0  0  0  0  0  0  0  0  0  0
    8.5808    9.5939    0.0000 C   0  0  0  0  0  0  0  0  0  0  0  0
    8.1173    8.1673    0.0000 C   0  0  0  0  0  0  0  0  0  0  0  0
    6.6501    7.8555    0.0000 C   0  0  0  0  0  0  0  0  0  0  0  0
    5.6464    8.9702    0.0000 C   0  0  0  0  0  0  0  0  0  0  0  0
    4.1791    8.6583    0.0000 N   0  0  0  0  0  0  0  0  0  0  0  0
    3.7156    7.2317    0.0000 C   0  0  0  0  0  0  0  0  0  0  0  0
    4.7193    6.1170    0.0000 O   0  0  0  0  0  0  0  0  0  0  0  0
    2.2484    6.9199    0.0000 N   0  0  0  0  0  0  0  0  0  0  0  0
    1.7849    5.4933    0.0000 C   0  0  0  0  0  0  0  0  0  0  0  0
    0.3177    5.1814    0.0000 C   0  0  0  0  0  0  0  0  0  0  0  0
   -0.1459    3.7548    0.0000 C   0  0  0  0  0  0  0  0  0  0  0  0
    0.8578    2.6401    0.0000 C   0  0  0  0  0  0  0  0  0  0  0  0
    2.3250    2.9520    0.0000 C   0  0  0  0  0  0  0  0  0  0  0  0
    2.7886    4.3786    0.0000 C   0  0  0  0  0  0  0  0  0  0  0  0
    0.3943    1.2135    0.0000 C   0  0  0  0  0  0  0  0  0  0  0  0
    1.2760    0.0000    0.0000 C   0  0  0  0  0  0  0  0  0  0  0  0
    0.3943   -1.2135    0.0000 S   0  0  0  0  0  0  0  0  0  0  0  0
   -1.0323   -0.7500    0.0000 C   0  0  0  0  0  0  0  0  0  0  0  0
   -2.3313   -1.5000    0.0000 C   0  0  0  0  0  0  0  0  0  0  0  0
   -3.6304   -0.7500    0.0000 C   0  0  0  0  0  0  0  0  0  0  0  0
   -3.6304    0.7500    0.0000 N   0  0  0  0  0  0  0  0  0  0  0  0
   -2.3313    1.5000    0.0000 C   0  0  0  0  0  0  0  0  0  0  0  0
   -2.3313    3.0000    0.0000 N   0  0  0  0  0  0  0  0  0  0  0  0
   -1.0323    0.7500    0.0000 C   0  0  0  0  0  0  0  0  0  0  0  0
   -2.3313   -3.0000    0.0000 C   0  0  0  0  0  0  0  0  0  0  0  0
   -2.3313   -4.5000    0.0000 C   0  0  0  0  0  0  0  0  0  0  0  0
   -2.3313   -6.0000    0.0000 C   0  0  0  0  0  0  0  0  0  0  0  0
   -3.6304   -6.7500    0.0000 C   0  0  0  0  0  0  0  0  0  0  0  0
   -3.6304   -8.2500    0.0000 C   0  0  0  0  0  0  0  0  0  0  0  0
   -2.3313   -9.0000    0.0000 C   0  0  0  0  0  0  0  0  0  0  0  0
   -1.0323   -8.2500    0.0000 N   0  0  0  0  0  0  0  0  0  0  0  0
   -1.0323   -6.7500    0.0000 C   0  0  0  0  0  0  0  0  0  0  0  0
    6.1099   10.3968    0.0000 C   0  0  0  0  0  0  0  0  0  0  0  0
  1  2  1  0
  2  3  2  0
  3  4  1  0
  4  5  2  0
  5  6  1  0
  6  7  1  0
  7  8  1  0
  8  9  2  0
  8 10  1  0
 10 11  1  0
 11 12  2  0
 12 13  1  0
 13 14  2  0
 14 15  1  0
 15 16  2  0
 14 17  1  0
 17 18  2  0
 18 19  1  0
 19 20  1  0
 20 21  2  0
 21 22  1  0
 22 23  2  0
 23 24  1  0
 24 25  1  0
 24 26  2  0
 21 27  1  0
 27 28  3  0
 28 29  1  0
 29 30  2  0
 30 31  1  0
 31 32  2  0
 32 33  1  0
 33 34  2  0
  6 35  2  0
 35  2  1  0
 16 11  1  0
 26 17  1  0
 26 20  1  0
 34 29  1  0
M  END
>  <Molecule>  (26) 
CHEMBL1971947

>  <Standard Type>  (26) 
Ki

>  <Standard Relation>  (26) 
>

>  <Standard Value>  (26) 
1584.89

>  <Standard Units>  (26) 
nM

>  <pChEMBL Value>  (26) 
nan

>  <Comment>  (26) 
inactive

>  <Compound Key>  (26) 
SID103904297

>  <Assay>  (26) 
CHEMBL1963742

>  <Assay Description>  (26) 
PUBCHEM_BIOASSAY: Navigating the Kinome. (Class of assay: other) Panel member name: JAK3

>  <BAO Format>  (26) 
assay format

>  <Target>  (26) 
CHEMBL2148

>  <Target Pref. Name>  (26) 
Tyrosine-protein kinase JAK3

>  <Target Organism>  (26) 
Homo sapiens

>  <Target Type>  (26) 
SINGLE PROTEIN

>  <Document>  (26) 
CHEMBL1201862

>  <Source>  (26) 
PubChem BioAssays

>  <Max Phase>  (26) 
0

>  <#Ro5 Violations>  (26) 
1

>  <Molecular Weight>  (26) 
475.58

>  <Ligand Efficiency BEI>  (26) 
nan

>  <Ligand Efficiency LE>  (26) 
nan

>  <Ligand Efficiency LLE>  (26) 
nan

>  <Ligand Efficiency SEI>  (26) 
nan

>  <ALogP>  (26) 
6.29

>  <Assay Organism>  (26) 
nan

>  <Assay Tissue ChEMBL ID>  (26) 
nan

>  <Assay Tissue Name>  (26) 
nan

>  <Assay Cell Type>  (26) 
nan

>  <Assay Subcellular Fraction>  (26) 
nan

>  <Organism Tax ID>  (26) 
9606

>  <BAO Format ID>  (26) 
BAO_0000019

>  <Published Type>  (26) 
nan

>  <Published Relation>  (26) 
nan

>  <Published Value>  (26) 
nan

>  <Published Units>  (26) 
nan

>  <Canonical Smiles>  (26) 
Cc1cccc(NC(=O)Nc2ccc(cc2)c3csc4c(cnc(N)c34)C#Cc5cccnc5)c1

>  <Data Validity Comment>  (26) 
nan

>  <Document Journal>  (26) 
nan

>  <Document Year>  (26) 
nan

>  <SRC ID>  (26) 
7

>  <UO Units>  (26) 
UO_0000065

>  <Potential Duplicate>  (26) 
False

>  <Class>  (26) 
0

$$$$

     RDKit          2D

 32 35  0  0  0  0  0  0  0  0999 V2000
    1.8478   -6.4639    0.0000 C   0  0  0  0  0  0  0  0  0  0  0  0
    2.0046   -4.9721    0.0000 C   0  0  0  0  0  0  0  0  0  0  0  0
    3.3037   -4.2221    0.0000 C   0  0  0  0  0  0  0  0  0  0  0  0
    2.9918   -2.7549    0.0000 N   0  0  0  0  0  0  0  0  0  0  0  0
    1.5000   -2.5981    0.0000 C   0  0  0  0  0  0  0  0  0  0  0  0
    0.8899   -3.9684    0.0000 N   0  0  0  0  0  0  0  0  0  0  0  0
    0.7500   -1.2990    0.0000 C   0  0  0  0  0  0  0  0  0  0  0  0
    1.5000    0.0000    0.0000 C   0  0  0  0  0  0  0  0  0  0  0  0
    0.7500    1.2990    0.0000 N   0  0  0  0  0  0  0  0  0  0  0  0
   -0.7500    1.2990    0.0000 C   0  0  0  0  0  0  0  0  0  0  0  0
   -1.5000    2.5981    0.0000 N   0  0  0  0  0  0  0  0  0  0  0  0
   -0.7500    3.8971    0.0000 C   0  0  0  0  0  0  0  0  0  0  0  0
   -1.5000    5.1962    0.0000 C   0  0  0  0  0  0  0  0  0  0  0  0
   -0.7500    6.4952    0.0000 N   0  0  0  0  0  0  0  0  0  0  0  0
   -1.5000    7.7942    0.0000 C   0  0  0  0  0  0  0  0  0  0  0  0
   -0.7500    9.0933    0.0000 C   0  0  0  0  0  0  0  0  0  0  0  0
   -1.5000   10.3923    0.0000 C   0  0  0  0  0  0  0  0  0  0  0  0
   -3.0000   10.3923    0.0000 C   0  0  0  0  0  0  0  0  0  0  0  0
   -3.7500    9.0933    0.0000 C   0  0  0  0  0  0  0  0  0  0  0  0
   -3.0000    7.7942    0.0000 N   0  0  0  0  0  0  0  0  0  0  0  0
   -3.7500   11.6913    0.0000 C   0  0  0  0  0  0  0  0  0  0  0  0
   -4.5000   12.9904    0.0000 N   0  0  0  0  0  0  0  0  0  0  0  0
   -1.5000    0.0000    0.0000 N   0  0  0  0  0  0  0  0  0  0  0  0
   -0.7500   -1.2990    0.0000 C   0  0  0  0  0  0  0  0  0  0  0  0
   -1.5000   -2.5981    0.0000 C   0  0  0  0  0  0  0  0  0  0  0  0
   -0.7500   -3.8971    0.0000 C   0  0  0  0  0  0  0  0  0  0  0  0
   -1.5000   -5.1962    0.0000 C   0  0  0  0  0  0  0  0  0  0  0  0
   -3.0000   -5.1962    0.0000 C   0  0  0  0  0  0  0  0  0  0  0  0
   -3.7500   -6.4952    0.0000 Cl  0  0  0  0  0  0  0  0  0  0  0  0
   -3.7500   -3.8971    0.0000 C   0  0  0  0  0  0  0  0  0  0  0  0
   -3.0000   -2.5981    0.0000 C   0  0  0  0  0  0  0  0  0  0  0  0
   -3.7500   -1.2990    0.0000 Cl  0  0  0  0  0  0  0  0  0  0  0  0
  1  2  1  0
  2  3  2  0
  3  4  1  0
  4  5  1  0
  5  6  2  0
  5  7  1  0
  7  8  2  0
  8  9  1  0
  9 10  2  0
 10 11  1  0
 11 12  1  0
 12 13  1  0
 13 14  1  0
 14 15  1  0
 15 16  2  0
 16 17  1  0
 17 18  2  0
 18 19  1  0
 19 20  2  0
 18 21  1  0
 21 22  3  0
 10 23  1  0
 23 24  2  0
 24 25  1  0
 25 26  2  0
 26 27  1  0
 27 28  2  0
 28 29  1  0
 28 30  1  0
 30 31  2  0
 31 32  1  0
  6  2  1  0
 24  7  1  0
 20 15  1  0
 31 25  1  0
M  END
>  <Molecule>  (27) 
CHEMBL412142

>  <Standard Type>  (27) 
Ki

>  <Standard Relation>  (27) 
>

>  <Standard Value>  (27) 
1584.89

>  <Standard Units>  (27) 
nM

>  <pChEMBL Value>  (27) 
nan

>  <Comment>  (27) 
inactive

>  <Compound Key>  (27) 
SID103905640

>  <Assay>  (27) 
CHEMBL1963742

>  <Assay Description>  (27) 
PUBCHEM_BIOASSAY: Navigating the Kinome. (Class of assay: other) Panel member name: JAK3

>  <BAO Format>  (27) 
assay format

>  <Target>  (27) 
CHEMBL2148

>  <Target Pref. Name>  (27) 
Tyrosine-protein kinase JAK3

>  <Target Organism>  (27) 
Homo sapiens

>  <Target Type>  (27) 
SINGLE PROTEIN

>  <Document>  (27) 
CHEMBL1201862

>  <Source>  (27) 
PubChem BioAssays

>  <Max Phase>  (27) 
0

>  <#Ro5 Violations>  (27) 
0

>  <Molecular Weight>  (27) 
465.35

>  <Ligand Efficiency BEI>  (27) 
nan

>  <Ligand Efficiency LE>  (27) 
nan

>  <Ligand Efficiency LLE>  (27) 
nan

>  <Ligand Efficiency SEI>  (27) 
nan

>  <ALogP>  (27) 
4.94

>  <Assay Organism>  (27) 
nan

>  <Assay Tissue ChEMBL ID>  (27) 
nan

>  <Assay Tissue Name>  (27) 
nan

>  <Assay Cell Type>  (27) 
nan

>  <Assay Subcellular Fraction>  (27) 
nan

>  <Organism Tax ID>  (27) 
9606

>  <BAO Format ID>  (27) 
BAO_0000019

>  <Published Type>  (27) 
nan

>  <Published Relation>  (27) 
nan

>  <Published Value>  (27) 
nan

>  <Published Units>  (27) 
nan

>  <Canonical Smiles>  (27) 
Cc1c[nH]c(n1)c2cnc(NCCNc3ccc(cn3)C#N)nc2c4ccc(Cl)cc4Cl

>  <Data Validity Comment>  (27) 
nan

>  <Document Journal>  (27) 
nan

>  <Document Year>  (27) 
nan

>  <SRC ID>  (27) 
7

>  <UO Units>  (27) 
UO_0000065

>  <Potential Duplicate>  (27) 
False

>  <Class>  (27) 
0

$$$$

     RDKit          2D

 24 26  0  0  0  0  0  0  0  0999 V2000
    3.7500   -1.2990    0.0000 O   0  0  0  0  0  0  0  0  0  0  0  0
    3.0000    0.0000    0.0000 C   0  0  0  0  0  0  0  0  0  0  0  0
    3.7500    1.2990    0.0000 O   0  0  0  0  0  0  0  0  0  0  0  0
    1.5000    0.0000    0.0000 C   0  0  0  0  0  0  0  0  0  0  0  0
    0.7500   -1.2990    0.0000 C   0  0  0  0  0  0  0  0  0  0  0  0
   -0.7500   -1.2990    0.0000 C   0  0  0  0  0  0  0  0  0  0  0  0
   -1.5000    0.0000    0.0000 C   0  0  0  0  0  0  0  0  0  0  0  0
   -0.7500    1.2990    0.0000 C   0  0  0  0  0  0  0  0  0  0  0  0
    0.7500    1.2990    0.0000 C   0  0  0  0  0  0  0  0  0  0  0  0
    1.5000    2.5981    0.0000 N   0  0  0  0  0  0  0  0  0  0  0  0
    0.7500    3.8971    0.0000 C   0  0  0  0  0  0  0  0  0  0  0  0
    1.5000    5.1962    0.0000 N   0  0  0  0  0  0  0  0  0  0  0  0
    0.7500    6.4952    0.0000 C   0  0  0  0  0  0  0  0  0  0  0  0
   -0.7500    6.4952    0.0000 N   0  0  0  0  0  0  0  0  0  0  0  0
   -1.5000    5.1962    0.0000 C   0  0  0  0  0  0  0  0  0  0  0  0
   -3.0000    5.1962    0.0000 N   0  0  0  0  0  0  0  0  0  0  0  0
   -3.7500    6.4952    0.0000 C   0  0  0  0  0  0  0  0  0  0  0  0
   -3.0000    7.7942    0.0000 C   0  0  0  0  0  0  0  0  0  0  0  0
   -3.7500    9.0933    0.0000 C   0  0  0  0  0  0  0  0  0  0  0  0
   -5.2500    9.0933    0.0000 C   0  0  0  0  0  0  0  0  0  0  0  0
   -6.0000   10.3923    0.0000 F   0  0  0  0  0  0  0  0  0  0  0  0
   -6.0000    7.7942    0.0000 C   0  0  0  0  0  0  0  0  0  0  0  0
   -5.2500    6.4952    0.0000 C   0  0  0  0  0  0  0  0  0  0  0  0
   -0.7500    3.8971    0.0000 N   0  0  0  0  0  0  0  0  0  0  0  0
  1  2  1  0
  2  3  2  0
  2  4  1  0
  4  5  2  0
  5  6  1  0
  6  7  2  0
  7  8  1  0
  8  9  2  0
  9 10  1  0
 10 11  1  0
 11 12  2  0
 12 13  1  0
 13 14  2  0
 14 15  1  0
 15 16  1  0
 16 17  1  0
 17 18  2  0
 18 19  1  0
 19 20  2  0
 20 21  1  0
 20 22  1  0
 22 23  2  0
 15 24  2  0
  9  4  1  0
 24 11  1  0
 23 17  1  0
M  END
>  <Molecule>  (28) 
CHEMBL1992231

>  <Standard Type>  (28) 
Ki

>  <Standard Relation>  (28) 
>

>  <Standard Value>  (28) 
5011.87

>  <Standard Units>  (28) 
nM

>  <pChEMBL Value>  (28) 
nan

>  <Comment>  (28) 
inactive

>  <Compound Key>  (28) 
SID103904615

>  <Assay>  (28) 
CHEMBL1963742

>  <Assay Description>  (28) 
PUBCHEM_BIOASSAY: Navigating the Kinome. (Class of assay: other) Panel member name: JAK3

>  <BAO Format>  (28) 
assay format

>  <Target>  (28) 
CHEMBL2148

>  <Target Pref. Name>  (28) 
Tyrosine-protein kinase JAK3

>  <Target Organism>  (28) 
Homo sapiens

>  <Target Type>  (28) 
SINGLE PROTEIN

>  <Document>  (28) 
CHEMBL1201862

>  <Source>  (28) 
PubChem BioAssays

>  <Max Phase>  (28) 
0

>  <#Ro5 Violations>  (28) 
0

>  <Molecular Weight>  (28) 
325.3

>  <Ligand Efficiency BEI>  (28) 
nan

>  <Ligand Efficiency LE>  (28) 
nan

>  <Ligand Efficiency LLE>  (28) 
nan

>  <Ligand Efficiency SEI>  (28) 
nan

>  <ALogP>  (28) 
3.2

>  <Assay Organism>  (28) 
nan

>  <Assay Tissue ChEMBL ID>  (28) 
nan

>  <Assay Tissue Name>  (28) 
nan

>  <Assay Cell Type>  (28) 
nan

>  <Assay Subcellular Fraction>  (28) 
nan

>  <Organism Tax ID>  (28) 
9606

>  <BAO Format ID>  (28) 
BAO_0000019

>  <Published Type>  (28) 
nan

>  <Published Relation>  (28) 
nan

>  <Published Value>  (28) 
nan

>  <Published Units>  (28) 
nan

>  <Canonical Smiles>  (28) 
OC(=O)c1ccccc1Nc2ncnc(Nc3ccc(F)cc3)n2

>  <Data Validity Comment>  (28) 
nan

>  <Document Journal>  (28) 
nan

>  <Document Year>  (28) 
nan

>  <SRC ID>  (28) 
7

>  <UO Units>  (28) 
UO_0000065

>  <Potential Duplicate>  (28) 
False

>  <Class>  (28) 
0

$$$$

     RDKit          2D

 20 22  0  0  0  0  0  0  0  0999 V2000
   -1.2990  -11.8573    0.0000 C   0  0  0  0  0  0  0  0  0  0  0  0
   -1.2990  -10.3573    0.0000 C   0  0  0  0  0  0  0  0  0  0  0  0
   -2.5981   -9.6073    0.0000 O   0  0  0  0  0  0  0  0  0  0  0  0
    0.0000   -9.6073    0.0000 N   0  0  0  0  0  0  0  0  0  0  0  0
    0.0000   -8.1073    0.0000 C   0  0  0  0  0  0  0  0  0  0  0  0
   -1.2990   -7.3573    0.0000 C   0  0  0  0  0  0  0  0  0  0  0  0
   -1.2990   -5.8573    0.0000 C   0  0  0  0  0  0  0  0  0  0  0  0
   -0.0000   -5.1073    0.0000 C   0  0  0  0  0  0  0  0  0  0  0  0
    1.2990   -5.8573    0.0000 C   0  0  0  0  0  0  0  0  0  0  0  0
    1.2990   -7.3573    0.0000 C   0  0  0  0  0  0  0  0  0  0  0  0
   -0.0000   -3.6073    0.0000 N   0  0  0  0  0  0  0  0  0  0  0  0
    1.2135   -2.7256    0.0000 N   0  0  0  0  0  0  0  0  0  0  0  0
    0.7500   -1.2990    0.0000 C   0  0  0  0  0  0  0  0  0  0  0  0
    1.5000    0.0000    0.0000 C   0  0  0  0  0  0  0  0  0  0  0  0
    0.7500    1.2990    0.0000 C   0  0  0  0  0  0  0  0  0  0  0  0
   -0.7500    1.2990    0.0000 C   0  0  0  0  0  0  0  0  0  0  0  0
   -1.5000    2.5981    0.0000 N   0  0  0  0  0  0  0  0  0  0  0  0
   -1.5000    0.0000    0.0000 N   0  0  0  0  0  0  0  0  0  0  0  0
   -0.7500   -1.2990    0.0000 C   0  0  0  0  0  0  0  0  0  0  0  0
   -1.2135   -2.7256    0.0000 N   0  0  0  0  0  0  0  0  0  0  0  0
  1  2  1  0
  2  3  2  0
  2  4  1  0
  4  5  1  0
  5  6  2  0
  6  7  1  0
  7  8  2  0
  8  9  1  0
  9 10  2  0
  8 11  1  0
 11 12  1  0
 12 13  2  0
 13 14  1  0
 14 15  2  0
 15 16  1  0
 16 17  1  0
 16 18  2  0
 18 19  1  0
 19 20  2  0
 10  5  1  0
 20 11  1  0
 19 13  1  0
M  END
>  <Molecule>  (29) 
CHEMBL2002723

>  <Standard Type>  (29) 
Ki

>  <Standard Relation>  (29) 
=

>  <Standard Value>  (29) 
1995.26

>  <Standard Units>  (29) 
nM

>  <pChEMBL Value>  (29) 
5.7

>  <Comment>  (29) 
active

>  <Compound Key>  (29) 
SID103905620

>  <Assay>  (29) 
CHEMBL1963742

>  <Assay Description>  (29) 
PUBCHEM_BIOASSAY: Navigating the Kinome. (Class of assay: other) Panel member name: JAK3

>  <BAO Format>  (29) 
assay format

>  <Target>  (29) 
CHEMBL2148

>  <Target Pref. Name>  (29) 
Tyrosine-protein kinase JAK3

>  <Target Organism>  (29) 
Homo sapiens

>  <Target Type>  (29) 
SINGLE PROTEIN

>  <Document>  (29) 
CHEMBL1201862

>  <Source>  (29) 
PubChem BioAssays

>  <Max Phase>  (29) 
0

>  <#Ro5 Violations>  (29) 
0

>  <Molecular Weight>  (29) 
268.28

>  <Ligand Efficiency BEI>  (29) 
nan

>  <Ligand Efficiency LE>  (29) 
nan

>  <Ligand Efficiency LLE>  (29) 
nan

>  <Ligand Efficiency SEI>  (29) 
nan

>  <ALogP>  (29) 
1.36

>  <Assay Organism>  (29) 
nan

>  <Assay Tissue ChEMBL ID>  (29) 
nan

>  <Assay Tissue Name>  (29) 
nan

>  <Assay Cell Type>  (29) 
nan

>  <Assay Subcellular Fraction>  (29) 
nan

>  <Organism Tax ID>  (29) 
9606

>  <BAO Format ID>  (29) 
BAO_0000019

>  <Published Type>  (29) 
nan

>  <Published Relation>  (29) 
nan

>  <Published Value>  (29) 
nan

>  <Published Units>  (29) 
nan

>  <Canonical Smiles>  (29) 
CC(=O)Nc1ccc(cc1)n2nc3ccc(N)nc3n2

>  <Data Validity Comment>  (29) 
nan

>  <Document Journal>  (29) 
nan

>  <Document Year>  (29) 
nan

>  <SRC ID>  (29) 
7

>  <UO Units>  (29) 
UO_0000065

>  <Potential Duplicate>  (29) 
False

>  <Class>  (29) 
1

$$$$

     RDKit          2D

 26 29  0  0  0  0  0  0  0  0999 V2000
    1.7745   13.9550    0.0000 F   0  0  0  0  0  0  0  0  0  0  0  0
    1.4627   12.4878    0.0000 C   0  0  0  0  0  0  0  0  0  0  0  0
    2.5774   11.4841    0.0000 C   0  0  0  0  0  0  0  0  0  0  0  0
    2.2655   10.0169    0.0000 C   0  0  0  0  0  0  0  0  0  0  0  0
    0.8389    9.5533    0.0000 C   0  0  0  0  0  0  0  0  0  0  0  0
   -0.2758   10.5570    0.0000 C   0  0  0  0  0  0  0  0  0  0  0  0
   -1.7024   10.0935    0.0000 N   0  0  0  0  0  0  0  0  0  0  0  0
   -2.0143    8.6263    0.0000 C   0  0  0  0  0  0  0  0  0  0  0  0
   -0.8995    7.6226    0.0000 O   0  0  0  0  0  0  0  0  0  0  0  0
   -3.4408    8.1628    0.0000 N   0  0  0  0  0  0  0  0  0  0  0  0
   -3.7527    6.6955    0.0000 C   0  0  0  0  0  0  0  0  0  0  0  0
   -5.1793    6.2320    0.0000 C   0  0  0  0  0  0  0  0  0  0  0  0
   -5.4912    4.7648    0.0000 C   0  0  0  0  0  0  0  0  0  0  0  0
   -4.3764    3.7611    0.0000 C   0  0  0  0  0  0  0  0  0  0  0  0
   -2.9499    4.2246    0.0000 C   0  0  0  0  0  0  0  0  0  0  0  0
   -2.6380    5.6918    0.0000 C   0  0  0  0  0  0  0  0  0  0  0  0
   -1.8351    3.2209    0.0000 C   0  0  0  0  0  0  0  0  0  0  0  0
   -0.4086    3.6844    0.0000 C   0  0  0  0  0  0  0  0  0  0  0  0
    0.7062    2.6807    0.0000 C   0  0  0  0  0  0  0  0  0  0  0  0
    0.3943    1.2135    0.0000 C   0  0  0  0  0  0  0  0  0  0  0  0
    1.2760    0.0000    0.0000 C   0  0  0  0  0  0  0  0  0  0  0  0
    0.3943   -1.2135    0.0000 N   0  0  0  0  0  0  0  0  0  0  0  0
   -1.0323   -0.7500    0.0000 N   0  0  0  0  0  0  0  0  0  0  0  0
   -1.0323    0.7500    0.0000 C   0  0  0  0  0  0  0  0  0  0  0  0
   -2.1470    1.7537    0.0000 C   0  0  0  0  0  0  0  0  0  0  0  0
    0.0361   12.0242    0.0000 C   0  0  0  0  0  0  0  0  0  0  0  0
  1  2  1  0
  2  3  2  0
  3  4  1  0
  4  5  2  0
  5  6  1  0
  6  7  1  0
  7  8  1  0
  8  9  2  0
  8 10  1  0
 10 11  1  0
 11 12  2  0
 12 13  1  0
 13 14  2  0
 14 15  1  0
 15 16  2  0
 15 17  1  0
 17 18  2  0
 18 19  1  0
 19 20  2  0
 20 21  1  0
 21 22  2  0
 22 23  1  0
 23 24  1  0
 24 25  2  0
  6 26  2  0
 26  2  1  0
 16 11  1  0
 25 17  1  0
 24 20  1  0
M  END
>  <Molecule>  (30) 
CHEMBL1983393

>  <Standard Type>  (30) 
Ki

>  <Standard Relation>  (30) 
>

>  <Standard Value>  (30) 
5011.87

>  <Standard Units>  (30) 
nM

>  <pChEMBL Value>  (30) 
nan

>  <Comment>  (30) 
inactive

>  <Compound Key>  (30) 
SID103904459

>  <Assay>  (30) 
CHEMBL1963742

>  <Assay Description>  (30) 
PUBCHEM_BIOASSAY: Navigating the Kinome. (Class of assay: other) Panel member name: JAK3

>  <BAO Format>  (30) 
assay format

>  <Target>  (30) 
CHEMBL2148

>  <Target Pref. Name>  (30) 
Tyrosine-protein kinase JAK3

>  <Target Organism>  (30) 
Homo sapiens

>  <Target Type>  (30) 
SINGLE PROTEIN

>  <Document>  (30) 
CHEMBL1201862

>  <Source>  (30) 
PubChem BioAssays

>  <Max Phase>  (30) 
0

>  <#Ro5 Violations>  (30) 
1

>  <Molecular Weight>  (30) 
346.37

>  <Ligand Efficiency BEI>  (30) 
nan

>  <Ligand Efficiency LE>  (30) 
nan

>  <Ligand Efficiency LLE>  (30) 
nan

>  <Ligand Efficiency SEI>  (30) 
nan

>  <ALogP>  (30) 
5.01

>  <Assay Organism>  (30) 
nan

>  <Assay Tissue ChEMBL ID>  (30) 
nan

>  <Assay Tissue Name>  (30) 
nan

>  <Assay Cell Type>  (30) 
nan

>  <Assay Subcellular Fraction>  (30) 
nan

>  <Organism Tax ID>  (30) 
9606

>  <BAO Format ID>  (30) 
BAO_0000019

>  <Published Type>  (30) 
nan

>  <Published Relation>  (30) 
nan

>  <Published Value>  (30) 
nan

>  <Published Units>  (30) 
nan

>  <Canonical Smiles>  (30) 
Fc1cccc(NC(=O)Nc2cccc(c2)c3ccc4cn[nH]c4c3)c1

>  <Data Validity Comment>  (30) 
nan

>  <Document Journal>  (30) 
nan

>  <Document Year>  (30) 
nan

>  <SRC ID>  (30) 
7

>  <UO Units>  (30) 
UO_0000065

>  <Potential Duplicate>  (30) 
False

>  <Class>  (30) 
0

$$$$

     RDKit          2D

 22 25  0  0  0  0  0  0  0  0999 V2000
    3.7500   -6.4952    0.0000 O   0  0  0  0  0  0  0  0  0  0  0  0
    3.0000   -5.1962    0.0000 C   0  0  0  0  0  0  0  0  0  0  0  0
    1.5000   -5.1962    0.0000 C   0  0  0  0  0  0  0  0  0  0  0  0
    0.7500   -3.8971    0.0000 C   0  0  0  0  0  0  0  0  0  0  0  0
    1.5000   -2.5981    0.0000 N   0  0  0  0  0  0  0  0  0  0  0  0
    3.0000   -2.5981    0.0000 C   0  0  0  0  0  0  0  0  0  0  0  0
    3.7500   -3.8971    0.0000 C   0  0  0  0  0  0  0  0  0  0  0  0
    0.7500   -1.2990    0.0000 C   0  0  0  0  0  0  0  0  0  0  0  0
    1.5000    0.0000    0.0000 N   0  0  0  0  0  0  0  0  0  0  0  0
    0.7500    1.2990    0.0000 C   0  0  0  0  0  0  0  0  0  0  0  0
   -0.7500    1.2990    0.0000 N   0  0  0  0  0  0  0  0  0  0  0  0
   -1.5000    0.0000    0.0000 C   0  0  0  0  0  0  0  0  0  0  0  0
   -2.9672   -0.3119    0.0000 N   0  0  0  0  0  0  0  0  0  0  0  0
   -3.1240   -1.8037    0.0000 C   0  0  0  0  0  0  0  0  0  0  0  0
   -1.7537   -2.4138    0.0000 C   0  0  0  0  0  0  0  0  0  0  0  0
   -1.4418   -3.8810    0.0000 C   0  0  0  0  0  0  0  0  0  0  0  0
   -2.5565   -4.8847    0.0000 C   0  0  0  0  0  0  0  0  0  0  0  0
   -2.2447   -6.3519    0.0000 C   0  0  0  0  0  0  0  0  0  0  0  0
   -0.8181   -6.8154    0.0000 C   0  0  0  0  0  0  0  0  0  0  0  0
    0.2966   -5.8117    0.0000 C   0  0  0  0  0  0  0  0  0  0  0  0
   -0.0152   -4.3445    0.0000 C   0  0  0  0  0  0  0  0  0  0  0  0
   -0.7500   -1.2990    0.0000 C   0  0  0  0  0  0  0  0  0  0  0  0
  1  2  1  0
  2  3  1  0
  3  4  1  0
  4  5  1  0
  5  6  1  0
  6  7  1  0
  5  8  1  0
  8  9  2  0
  9 10  1  0
 10 11  2  0
 11 12  1  0
 12 13  1  0
 13 14  1  0
 14 15  2  0
 15 16  1  0
 16 17  2  0
 17 18  1  0
 18 19  2  0
 19 20  1  0
 20 21  2  0
 15 22  1  0
  7  2  1  0
 22  8  1  0
 22 12  2  0
 21 16  1  0
M  END
>  <Molecule>  (31) 
CHEMBL1973395

>  <Standard Type>  (31) 
Ki

>  <Standard Relation>  (31) 
=

>  <Standard Value>  (31) 
63.1

>  <Standard Units>  (31) 
nM

>  <pChEMBL Value>  (31) 
7.2

>  <Comment>  (31) 
active

>  <Compound Key>  (31) 
SID103904214

>  <Assay>  (31) 
CHEMBL1963742

>  <Assay Description>  (31) 
PUBCHEM_BIOASSAY: Navigating the Kinome. (Class of assay: other) Panel member name: JAK3

>  <BAO Format>  (31) 
assay format

>  <Target>  (31) 
CHEMBL2148

>  <Target Pref. Name>  (31) 
Tyrosine-protein kinase JAK3

>  <Target Organism>  (31) 
Homo sapiens

>  <Target Type>  (31) 
SINGLE PROTEIN

>  <Document>  (31) 
CHEMBL1201862

>  <Source>  (31) 
PubChem BioAssays

>  <Max Phase>  (31) 
0

>  <#Ro5 Violations>  (31) 
0

>  <Molecular Weight>  (31) 
294.36

>  <Ligand Efficiency BEI>  (31) 
nan

>  <Ligand Efficiency LE>  (31) 
nan

>  <Ligand Efficiency LLE>  (31) 
nan

>  <Ligand Efficiency SEI>  (31) 
nan

>  <ALogP>  (31) 
2.59

>  <Assay Organism>  (31) 
nan

>  <Assay Tissue ChEMBL ID>  (31) 
nan

>  <Assay Tissue Name>  (31) 
nan

>  <Assay Cell Type>  (31) 
nan

>  <Assay Subcellular Fraction>  (31) 
nan

>  <Organism Tax ID>  (31) 
9606

>  <BAO Format ID>  (31) 
BAO_0000019

>  <Published Type>  (31) 
nan

>  <Published Relation>  (31) 
nan

>  <Published Value>  (31) 
nan

>  <Published Units>  (31) 
nan

>  <Canonical Smiles>  (31) 
OC1CCN(CC1)c2ncnc3[nH]cc(c4ccccc4)c23

>  <Data Validity Comment>  (31) 
nan

>  <Document Journal>  (31) 
nan

>  <Document Year>  (31) 
nan

>  <SRC ID>  (31) 
7

>  <UO Units>  (31) 
UO_0000065

>  <Potential Duplicate>  (31) 
False

>  <Class>  (31) 
1

$$$$

     RDKit          2D

 28 31  0  0  0  0  0  0  0  0999 V2000
   -2.6401   -3.1891    0.0000 C   0  0  0  0  0  0  0  0  0  0  0  0
   -1.2135   -2.7256    0.0000 C   0  0  0  0  0  0  0  0  0  0  0  0
   -0.0000   -3.6073    0.0000 C   0  0  0  0  0  0  0  0  0  0  0  0
    1.2135   -2.7256    0.0000 N   0  0  0  0  0  0  0  0  0  0  0  0
    0.7500   -1.2990    0.0000 C   0  0  0  0  0  0  0  0  0  0  0  0
    1.5000    0.0000    0.0000 N   0  0  0  0  0  0  0  0  0  0  0  0
    0.7500    1.2990    0.0000 C   0  0  0  0  0  0  0  0  0  0  0  0
   -0.7500    1.2990    0.0000 C   0  0  0  0  0  0  0  0  0  0  0  0
   -1.5000    0.0000    0.0000 C   0  0  0  0  0  0  0  0  0  0  0  0
   -3.0000    0.0000    0.0000 O   0  0  0  0  0  0  0  0  0  0  0  0
   -3.7500    1.2990    0.0000 C   0  0  0  0  0  0  0  0  0  0  0  0
   -3.0000    2.5981    0.0000 C   0  0  0  0  0  0  0  0  0  0  0  0
   -1.5000    2.5981    0.0000 F   0  0  0  0  0  0  0  0  0  0  0  0
   -3.7500    3.8971    0.0000 C   0  0  0  0  0  0  0  0  0  0  0  0
   -5.2500    3.8971    0.0000 C   0  0  0  0  0  0  0  0  0  0  0  0
   -6.0000    5.1962    0.0000 N   0  0  0  0  0  0  0  0  0  0  0  0
   -5.2500    6.4952    0.0000 C   0  0  0  0  0  0  0  0  0  0  0  0
   -3.7500    6.4952    0.0000 C   0  0  0  0  0  0  0  0  0  0  0  0
   -3.0000    7.7942    0.0000 C   0  0  0  0  0  0  0  0  0  0  0  0
   -1.5000    7.7942    0.0000 Cl  0  0  0  0  0  0  0  0  0  0  0  0
   -3.7500    9.0933    0.0000 N   0  0  0  0  0  0  0  0  0  0  0  0
   -5.2500    9.0933    0.0000 C   0  0  0  0  0  0  0  0  0  0  0  0
   -6.0000   10.3923    0.0000 N   0  0  0  0  0  0  0  0  0  0  0  0
   -6.0000    7.7942    0.0000 N   0  0  0  0  0  0  0  0  0  0  0  0
   -6.0000    2.5981    0.0000 C   0  0  0  0  0  0  0  0  0  0  0  0
   -5.2500    1.2990    0.0000 C   0  0  0  0  0  0  0  0  0  0  0  0
   -6.0000    0.0000    0.0000 F   0  0  0  0  0  0  0  0  0  0  0  0
   -0.7500   -1.2990    0.0000 C   0  0  0  0  0  0  0  0  0  0  0  0
  1  2  1  0
  2  3  2  0
  3  4  1  0
  4  5  1  0
  5  6  2  0
  6  7  1  0
  7  8  2  0
  8  9  1  0
  9 10  1  0
 10 11  1  0
 11 12  2  0
 12 13  1  0
 12 14  1  0
 14 15  2  0
 15 16  1  0
 16 17  1  0
 17 18  2  0
 18 19  1  0
 19 20  1  0
 19 21  2  0
 21 22  1  0
 22 23  1  0
 22 24  2  0
 15 25  1  0
 25 26  2  0
 26 27  1  0
  9 28  2  0
 28  2  1  0
 28  5  1  0
 26 11  1  0
 24 17  1  0
M  END
>  <Molecule>  (32) 
CHEMBL1971943

>  <Standard Type>  (32) 
Ki

>  <Standard Relation>  (32) 
>

>  <Standard Value>  (32) 
3981.07

>  <Standard Units>  (32) 
nM

>  <pChEMBL Value>  (32) 
nan

>  <Comment>  (32) 
inactive

>  <Compound Key>  (32) 
SID103905649

>  <Assay>  (32) 
CHEMBL1963742

>  <Assay Description>  (32) 
PUBCHEM_BIOASSAY: Navigating the Kinome. (Class of assay: other) Panel member name: JAK3

>  <BAO Format>  (32) 
assay format

>  <Target>  (32) 
CHEMBL2148

>  <Target Pref. Name>  (32) 
Tyrosine-protein kinase JAK3

>  <Target Organism>  (32) 
Homo sapiens

>  <Target Type>  (32) 
SINGLE PROTEIN

>  <Document>  (32) 
CHEMBL1201862

>  <Source>  (32) 
PubChem BioAssays

>  <Max Phase>  (32) 
0

>  <#Ro5 Violations>  (32) 
0

>  <Molecular Weight>  (32) 
402.79

>  <Ligand Efficiency BEI>  (32) 
nan

>  <Ligand Efficiency LE>  (32) 
nan

>  <Ligand Efficiency LLE>  (32) 
nan

>  <Ligand Efficiency SEI>  (32) 
nan

>  <ALogP>  (32) 
4.71

>  <Assay Organism>  (32) 
nan

>  <Assay Tissue ChEMBL ID>  (32) 
nan

>  <Assay Tissue Name>  (32) 
nan

>  <Assay Cell Type>  (32) 
nan

>  <Assay Subcellular Fraction>  (32) 
nan

>  <Organism Tax ID>  (32) 
9606

>  <BAO Format ID>  (32) 
BAO_0000019

>  <Published Type>  (32) 
nan

>  <Published Relation>  (32) 
nan

>  <Published Value>  (32) 
nan

>  <Published Units>  (32) 
nan

>  <Canonical Smiles>  (32) 
Cc1c[nH]c2nccc(Oc3c(F)cc(Nc4cc(Cl)nc(N)n4)cc3F)c12

>  <Data Validity Comment>  (32) 
nan

>  <Document Journal>  (32) 
nan

>  <Document Year>  (32) 
nan

>  <SRC ID>  (32) 
7

>  <UO Units>  (32) 
UO_0000065

>  <Potential Duplicate>  (32) 
False

>  <Class>  (32) 
0

$$$$

     RDKit          2D

 31 32  0  0  0  0  0  0  0  0999 V2000
    3.7500   -1.2990    0.0000 C   0  0  0  0  0  0  0  0  0  0  0  0
    3.0000    0.0000    0.0000 O   0  0  0  0  0  0  0  0  0  0  0  0
    1.5000    0.0000    0.0000 C   0  0  0  0  0  0  0  0  0  0  0  0
    0.7500   -1.2990    0.0000 C   0  0  0  0  0  0  0  0  0  0  0  0
   -0.7500   -1.2990    0.0000 C   0  0  0  0  0  0  0  0  0  0  0  0
   -1.5000    0.0000    0.0000 C   0  0  0  0  0  0  0  0  0  0  0  0
   -3.0000    0.0000    0.0000 O   0  0  0  0  0  0  0  0  0  0  0  0
   -3.7500    1.2990    0.0000 C   0  0  0  0  0  0  0  0  0  0  0  0
   -0.7500    1.2990    0.0000 C   0  0  0  0  0  0  0  0  0  0  0  0
    0.7500    1.2990    0.0000 C   0  0  0  0  0  0  0  0  0  0  0  0
    1.5000    2.5981    0.0000 C   0  0  0  0  0  0  0  0  0  0  0  0
    3.0000    2.5981    0.0000 C   0  0  0  0  0  0  0  0  0  0  0  0
    3.7500    1.2990    0.0000 O   0  0  0  0  0  0  0  0  0  0  0  0
    3.7500    3.8971    0.0000 N   0  0  0  0  0  0  0  0  0  0  0  0
    5.2500    3.8971    0.0000 C   0  0  0  0  0  0  0  0  0  0  0  0
    6.0000    2.5981    0.0000 C   0  0  0  0  0  0  0  0  0  0  0  0
    7.5000    2.5981    0.0000 C   0  0  0  0  0  0  0  0  0  0  0  0
    8.2500    1.2990    0.0000 N   0  0  0  0  0  0  0  0  0  0  0  0
    8.2500    3.8971    0.0000 C   0  0  0  0  0  0  0  0  0  0  0  0
    9.7500    3.8971    0.0000 C   0  0  0  0  0  0  0  0  0  0  0  0
   11.2500    3.8971    0.0000 N   0  0  0  0  0  0  0  0  0  0  0  0
    7.5000    5.1962    0.0000 C   0  0  0  0  0  0  0  0  0  0  0  0
    8.2500    6.4952    0.0000 O   0  0  0  0  0  0  0  0  0  0  0  0
    7.5000    7.7942    0.0000 C   0  0  0  0  0  0  0  0  0  0  0  0
    8.2500    9.0933    0.0000 C   0  0  0  0  0  0  0  0  0  0  0  0
    6.0000    7.7942    0.0000 C   0  0  0  0  0  0  0  0  0  0  0  0
    6.0000    5.1962    0.0000 N   0  0  0  0  0  0  0  0  0  0  0  0
   -1.5000   -2.5981    0.0000 S   0  0  0  0  0  0  0  0  0  0  0  0
   -2.7990   -1.8481    0.0000 O   0  0  0  0  0  0  0  0  0  0  0  0
   -0.2010   -3.3481    0.0000 O   0  0  0  0  0  0  0  0  0  0  0  0
   -2.2500   -3.8971    0.0000 C   0  0  0  0  0  0  0  0  0  0  0  0
  1  2  1  0
  2  3  1  0
  3  4  2  0
  4  5  1  0
  5  6  2  0
  6  7  1  0
  7  8  1  0
  6  9  1  0
  9 10  2  0
 10 11  1  0
 11 12  1  0
 12 13  2  0
 12 14  1  0
 14 15  1  0
 15 16  2  0
 16 17  1  0
 17 18  1  0
 17 19  2  0
 19 20  1  0
 20 21  3  0
 19 22  1  0
 22 23  1  0
 23 24  1  0
 24 25  1  0
 24 26  1  0
 22 27  2  0
  5 28  1  0
 28 29  2  0
 28 30  2  0
 28 31  1  0
 10  3  1  0
 27 15  1  0
M  END
>  <Molecule>  (33) 
CHEMBL378627

>  <Standard Type>  (33) 
Ki

>  <Standard Relation>  (33) 
>

>  <Standard Value>  (33) 
1584.89

>  <Standard Units>  (33) 
nM

>  <pChEMBL Value>  (33) 
nan

>  <Comment>  (33) 
inactive

>  <Compound Key>  (33) 
SID103905196

>  <Assay>  (33) 
CHEMBL1963742

>  <Assay Description>  (33) 
PUBCHEM_BIOASSAY: Navigating the Kinome. (Class of assay: other) Panel member name: JAK3

>  <BAO Format>  (33) 
assay format

>  <Target>  (33) 
CHEMBL2148

>  <Target Pref. Name>  (33) 
Tyrosine-protein kinase JAK3

>  <Target Organism>  (33) 
Homo sapiens

>  <Target Type>  (33) 
SINGLE PROTEIN

>  <Document>  (33) 
CHEMBL1201862

>  <Source>  (33) 
PubChem BioAssays

>  <Max Phase>  (33) 
0

>  <#Ro5 Violations>  (33) 
0

>  <Molecular Weight>  (33) 
448.5

>  <Ligand Efficiency BEI>  (33) 
nan

>  <Ligand Efficiency LE>  (33) 
nan

>  <Ligand Efficiency LLE>  (33) 
nan

>  <Ligand Efficiency SEI>  (33) 
nan

>  <ALogP>  (33) 
1.92

>  <Assay Organism>  (33) 
nan

>  <Assay Tissue ChEMBL ID>  (33) 
nan

>  <Assay Tissue Name>  (33) 
nan

>  <Assay Cell Type>  (33) 
nan

>  <Assay Subcellular Fraction>  (33) 
nan

>  <Organism Tax ID>  (33) 
9606

>  <BAO Format ID>  (33) 
BAO_0000019

>  <Published Type>  (33) 
nan

>  <Published Relation>  (33) 
nan

>  <Published Value>  (33) 
nan

>  <Published Units>  (33) 
nan

>  <Canonical Smiles>  (33) 
COc1cc(c(OC)cc1CC(=O)Nc2cc(N)c(C#N)c(OC(C)C)n2)S(=O)(=O)C

>  <Data Validity Comment>  (33) 
nan

>  <Document Journal>  (33) 
nan

>  <Document Year>  (33) 
nan

>  <SRC ID>  (33) 
7

>  <UO Units>  (33) 
UO_0000065

>  <Potential Duplicate>  (33) 
False

>  <Class>  (33) 
0

$$$$

     RDKit          2D

 25 27  0  0  0  0  0  0  0  0999 V2000
    0.7500   -6.4952    0.0000 O   0  0  0  0  0  0  0  0  0  0  0  0
    1.5000   -5.1962    0.0000 C   0  0  0  0  0  0  0  0  0  0  0  0
    0.7500   -3.8971    0.0000 C   0  0  0  0  0  0  0  0  0  0  0  0
    1.5000   -2.5981    0.0000 C   0  0  0  0  0  0  0  0  0  0  0  0
    0.7500   -1.2990    0.0000 C   0  0  0  0  0  0  0  0  0  0  0  0
    1.5000    0.0000    0.0000 C   0  0  0  0  0  0  0  0  0  0  0  0
    0.7500    1.2990    0.0000 C   0  0  0  0  0  0  0  0  0  0  0  0
   -0.7500    1.2990    0.0000 C   0  0  0  0  0  0  0  0  0  0  0  0
   -1.5000    0.0000    0.0000 C   0  0  0  0  0  0  0  0  0  0  0  0
   -0.7500   -1.2990    0.0000 C   0  0  0  0  0  0  0  0  0  0  0  0
   -0.7500   -3.8971    0.0000 N   0  0  0  0  0  0  0  0  0  0  0  0
   -1.5000   -5.1962    0.0000 C   0  0  0  0  0  0  0  0  0  0  0  0
   -0.7500   -6.4952    0.0000 O   0  0  0  0  0  0  0  0  0  0  0  0
   -3.0000   -5.1962    0.0000 C   0  0  0  0  0  0  0  0  0  0  0  0
   -3.7500   -3.8971    0.0000 C   0  0  0  0  0  0  0  0  0  0  0  0
   -5.2500   -3.8971    0.0000 C   0  0  0  0  0  0  0  0  0  0  0  0
   -6.0000   -5.1962    0.0000 C   0  0  0  0  0  0  0  0  0  0  0  0
   -5.2500   -6.4952    0.0000 C   0  0  0  0  0  0  0  0  0  0  0  0
   -3.7500   -6.4952    0.0000 C   0  0  0  0  0  0  0  0  0  0  0  0
   -7.5000   -5.1962    0.0000 C   0  0  0  0  0  0  0  0  0  0  0  0
   -8.2500   -3.8971    0.0000 C   0  0  0  0  0  0  0  0  0  0  0  0
   -9.7500   -3.8971    0.0000 C   0  0  0  0  0  0  0  0  0  0  0  0
  -10.5000   -5.1962    0.0000 N   0  0  0  0  0  0  0  0  0  0  0  0
   -9.7500   -6.4952    0.0000 C   0  0  0  0  0  0  0  0  0  0  0  0
   -8.2500   -6.4952    0.0000 C   0  0  0  0  0  0  0  0  0  0  0  0
  1  2  1  0
  2  3  1  0
  3  4  1  0
  4  5  1  0
  5  6  2  0
  6  7  1  0
  7  8  2  0
  8  9  1  0
  9 10  2  0
  3 11  1  0
 11 12  1  0
 12 13  2  0
 12 14  1  0
 14 15  2  0
 15 16  1  0
 16 17  2  0
 17 18  1  0
 18 19  2  0
 17 20  1  0
 20 21  2  0
 21 22  1  0
 22 23  2  0
 23 24  1  0
 24 25  2  0
 10  5  1  0
 19 14  1  0
 25 20  1  0
M  END
>  <Molecule>  (34) 
CHEMBL1998545

>  <Standard Type>  (34) 
Ki

>  <Standard Relation>  (34) 
>

>  <Standard Value>  (34) 
1584.89

>  <Standard Units>  (34) 
nM

>  <pChEMBL Value>  (34) 
nan

>  <Comment>  (34) 
inactive

>  <Compound Key>  (34) 
SID103904581

>  <Assay>  (34) 
CHEMBL1963742

>  <Assay Description>  (34) 
PUBCHEM_BIOASSAY: Navigating the Kinome. (Class of assay: other) Panel member name: JAK3

>  <BAO Format>  (34) 
assay format

>  <Target>  (34) 
CHEMBL2148

>  <Target Pref. Name>  (34) 
Tyrosine-protein kinase JAK3

>  <Target Organism>  (34) 
Homo sapiens

>  <Target Type>  (34) 
SINGLE PROTEIN

>  <Document>  (34) 
CHEMBL1201862

>  <Source>  (34) 
PubChem BioAssays

>  <Max Phase>  (34) 
0

>  <#Ro5 Violations>  (34) 
0

>  <Molecular Weight>  (34) 
332.4

>  <Ligand Efficiency BEI>  (34) 
nan

>  <Ligand Efficiency LE>  (34) 
nan

>  <Ligand Efficiency LLE>  (34) 
nan

>  <Ligand Efficiency SEI>  (34) 
nan

>  <ALogP>  (34) 
3.08

>  <Assay Organism>  (34) 
nan

>  <Assay Tissue ChEMBL ID>  (34) 
nan

>  <Assay Tissue Name>  (34) 
nan

>  <Assay Cell Type>  (34) 
nan

>  <Assay Subcellular Fraction>  (34) 
nan

>  <Organism Tax ID>  (34) 
9606

>  <BAO Format ID>  (34) 
BAO_0000019

>  <Published Type>  (34) 
nan

>  <Published Relation>  (34) 
nan

>  <Published Value>  (34) 
nan

>  <Published Units>  (34) 
nan

>  <Canonical Smiles>  (34) 
OCC(Cc1ccccc1)NC(=O)c2ccc(cc2)c3ccncc3

>  <Data Validity Comment>  (34) 
nan

>  <Document Journal>  (34) 
nan

>  <Document Year>  (34) 
nan

>  <SRC ID>  (34) 
7

>  <UO Units>  (34) 
UO_0000065

>  <Potential Duplicate>  (34) 
False

>  <Class>  (34) 
0

$$$$

     RDKit          2D

 31 34  0  0  0  0  0  0  0  0999 V2000
    3.7500   -1.2990    0.0000 C   0  0  0  0  0  0  0  0  0  0  0  0
    3.0000    0.0000    0.0000 C   0  0  0  0  0  0  0  0  0  0  0  0
    1.5000    0.0000    0.0000 C   0  0  0  0  0  0  0  0  0  0  0  0
    0.7500   -1.2990    0.0000 N   0  0  0  0  0  0  0  0  0  0  0  0
   -0.7500   -1.2990    0.0000 C   0  0  0  0  0  0  0  0  0  0  0  0
   -1.5000    0.0000    0.0000 C   0  0  0  0  0  0  0  0  0  0  0  0
   -0.7500    1.2990    0.0000 N   0  0  0  0  0  0  0  0  0  0  0  0
   -1.2135    2.7256    0.0000 C   0  0  0  0  0  0  0  0  0  0  0  0
   -2.6401    3.1891    0.0000 C   0  0  0  0  0  0  0  0  0  0  0  0
   -2.9520    4.6564    0.0000 C   0  0  0  0  0  0  0  0  0  0  0  0
   -4.3786    5.1199    0.0000 C   0  0  0  0  0  0  0  0  0  0  0  0
   -5.4933    4.1162    0.0000 N   0  0  0  0  0  0  0  0  0  0  0  0
   -5.1814    2.6490    0.0000 C   0  0  0  0  0  0  0  0  0  0  0  0
   -6.2961    1.6453    0.0000 N   0  0  0  0  0  0  0  0  0  0  0  0
   -7.7227    2.1088    0.0000 C   0  0  0  0  0  0  0  0  0  0  0  0
   -8.8374    1.1051    0.0000 C   0  0  0  0  0  0  0  0  0  0  0  0
   -7.8337   -0.0096    0.0000 C   0  0  0  0  0  0  0  0  0  0  0  0
   -9.8411    2.2198    0.0000 C   0  0  0  0  0  0  0  0  0  0  0  0
   -9.9521    0.1014    0.0000 O   0  0  0  0  0  0  0  0  0  0  0  0
   -3.7548    2.1855    0.0000 N   0  0  0  0  0  0  0  0  0  0  0  0
   -0.0000    3.6073    0.0000 C   0  0  0  0  0  0  0  0  0  0  0  0
    1.2135    2.7256    0.0000 N   0  0  0  0  0  0  0  0  0  0  0  0
    0.7500    1.2990    0.0000 C   0  0  0  0  0  0  0  0  0  0  0  0
   -0.0000    5.1073    0.0000 C   0  0  0  0  0  0  0  0  0  0  0  0
   -1.2990    5.8573    0.0000 C   0  0  0  0  0  0  0  0  0  0  0  0
   -1.2990    7.3573    0.0000 C   0  0  0  0  0  0  0  0  0  0  0  0
   -0.0000    8.1073    0.0000 C   0  0  0  0  0  0  0  0  0  0  0  0
   -0.0000    9.6073    0.0000 F   0  0  0  0  0  0  0  0  0  0  0  0
    1.2990    7.3573    0.0000 C   0  0  0  0  0  0  0  0  0  0  0  0
    1.2990    5.8573    0.0000 C   0  0  0  0  0  0  0  0  0  0  0  0
    2.5981    5.1073    0.0000 F   0  0  0  0  0  0  0  0  0  0  0  0
  1  2  1  0
  2  3  1  0
  3  4  2  0
  4  5  1  0
  5  6  2  0
  6  7  1  0
  7  8  1  0
  8  9  1  0
  9 10  2  0
 10 11  1  0
 11 12  2  0
 12 13  1  0
 13 14  1  0
 14 15  1  0
 15 16  1  0
 16 17  1  0
 16 18  1  0
 16 19  1  0
 13 20  2  0
  8 21  2  0
 21 22  1  0
 22 23  2  0
 21 24  1  0
 24 25  2  0
 25 26  1  0
 26 27  2  0
 27 28  1  0
 27 29  1  0
 29 30  2  0
 30 31  1  0
 23  3  1  0
 23  7  1  0
 20  9  1  0
 30 24  1  0
M  END
>  <Molecule>  (35) 
CHEMBL2001547

>  <Standard Type>  (35) 
Ki

>  <Standard Relation>  (35) 
>

>  <Standard Value>  (35) 
1584.89

>  <Standard Units>  (35) 
nM

>  <pChEMBL Value>  (35) 
nan

>  <Comment>  (35) 
inactive

>  <Compound Key>  (35) 
SID103904774

>  <Assay>  (35) 
CHEMBL1963742

>  <Assay Description>  (35) 
PUBCHEM_BIOASSAY: Navigating the Kinome. (Class of assay: other) Panel member name: JAK3

>  <BAO Format>  (35) 
assay format

>  <Target>  (35) 
CHEMBL2148

>  <Target Pref. Name>  (35) 
Tyrosine-protein kinase JAK3

>  <Target Organism>  (35) 
Homo sapiens

>  <Target Type>  (35) 
SINGLE PROTEIN

>  <Document>  (35) 
CHEMBL1201862

>  <Source>  (35) 
PubChem BioAssays

>  <Max Phase>  (35) 
0

>  <#Ro5 Violations>  (35) 
0

>  <Molecular Weight>  (35) 
424.46

>  <Ligand Efficiency BEI>  (35) 
nan

>  <Ligand Efficiency LE>  (35) 
nan

>  <Ligand Efficiency LLE>  (35) 
nan

>  <Ligand Efficiency SEI>  (35) 
nan

>  <ALogP>  (35) 
3.88

>  <Assay Organism>  (35) 
nan

>  <Assay Tissue ChEMBL ID>  (35) 
nan

>  <Assay Tissue Name>  (35) 
nan

>  <Assay Cell Type>  (35) 
nan

>  <Assay Subcellular Fraction>  (35) 
nan

>  <Organism Tax ID>  (35) 
9606

>  <BAO Format ID>  (35) 
BAO_0000019

>  <Published Type>  (35) 
nan

>  <Published Relation>  (35) 
nan

>  <Published Value>  (35) 
nan

>  <Published Units>  (35) 
nan

>  <Canonical Smiles>  (35) 
CCc1nccn2c(c3ccnc(NCC(C)(C)O)n3)c(nc12)c4ccc(F)cc4F

>  <Data Validity Comment>  (35) 
nan

>  <Document Journal>  (35) 
nan

>  <Document Year>  (35) 
nan

>  <SRC ID>  (35) 
7

>  <UO Units>  (35) 
UO_0000065

>  <Potential Duplicate>  (35) 
False

>  <Class>  (35) 
0

$$$$

     RDKit          2D

 17 18  0  0  0  0  0  0  0  0999 V2000
    3.7500   -1.2990    0.0000 C   0  0  0  0  0  0  0  0  0  0  0  0
    3.0000    0.0000    0.0000 O   0  0  0  0  0  0  0  0  0  0  0  0
    1.5000    0.0000    0.0000 C   0  0  0  0  0  0  0  0  0  0  0  0
    0.7500   -1.2990    0.0000 C   0  0  0  0  0  0  0  0  0  0  0  0
   -0.7500   -1.2990    0.0000 C   0  0  0  0  0  0  0  0  0  0  0  0
   -1.5000   -2.5981    0.0000 C   0  0  0  0  0  0  0  0  0  0  0  0
   -3.0000   -2.5981    0.0000 C   0  0  0  0  0  0  0  0  0  0  0  0
   -3.8817   -3.8116    0.0000 S   0  0  0  0  0  0  0  0  0  0  0  0
   -5.3083   -3.3481    0.0000 C   0  0  0  0  0  0  0  0  0  0  0  0
   -6.5218   -4.2298    0.0000 O   0  0  0  0  0  0  0  0  0  0  0  0
   -5.3083   -1.8481    0.0000 N   0  0  0  0  0  0  0  0  0  0  0  0
   -3.8817   -1.3846    0.0000 C   0  0  0  0  0  0  0  0  0  0  0  0
   -3.4182    0.0420    0.0000 O   0  0  0  0  0  0  0  0  0  0  0  0
   -1.5000    0.0000    0.0000 C   0  0  0  0  0  0  0  0  0  0  0  0
   -0.7500    1.2990    0.0000 C   0  0  0  0  0  0  0  0  0  0  0  0
    0.7500    1.2990    0.0000 C   0  0  0  0  0  0  0  0  0  0  0  0
    1.5000    2.5981    0.0000 O   0  0  0  0  0  0  0  0  0  0  0  0
  1  2  1  0
  2  3  1  0
  3  4  2  0
  4  5  1  0
  5  6  1  0
  6  7  2  3
  7  8  1  0
  8  9  1  0
  9 10  2  0
  9 11  1  0
 11 12  1  0
 12 13  2  0
  5 14  2  0
 14 15  1  0
 15 16  2  0
 16 17  1  0
 16  3  1  0
 12  7  1  0
M  END
>  <Molecule>  (36) 
CHEMBL2003286

>  <Standard Type>  (36) 
Ki

>  <Standard Relation>  (36) 
>

>  <Standard Value>  (36) 
1584.89

>  <Standard Units>  (36) 
nM

>  <pChEMBL Value>  (36) 
nan

>  <Comment>  (36) 
inactive

>  <Compound Key>  (36) 
SID103905210

>  <Assay>  (36) 
CHEMBL1963742

>  <Assay Description>  (36) 
PUBCHEM_BIOASSAY: Navigating the Kinome. (Class of assay: other) Panel member name: JAK3

>  <BAO Format>  (36) 
assay format

>  <Target>  (36) 
CHEMBL2148

>  <Target Pref. Name>  (36) 
Tyrosine-protein kinase JAK3

>  <Target Organism>  (36) 
Homo sapiens

>  <Target Type>  (36) 
SINGLE PROTEIN

>  <Document>  (36) 
CHEMBL1201862

>  <Source>  (36) 
PubChem BioAssays

>  <Max Phase>  (36) 
0

>  <#Ro5 Violations>  (36) 
0

>  <Molecular Weight>  (36) 
251.26

>  <Ligand Efficiency BEI>  (36) 
nan

>  <Ligand Efficiency LE>  (36) 
nan

>  <Ligand Efficiency LLE>  (36) 
nan

>  <Ligand Efficiency SEI>  (36) 
nan

>  <ALogP>  (36) 
1.72

>  <Assay Organism>  (36) 
nan

>  <Assay Tissue ChEMBL ID>  (36) 
nan

>  <Assay Tissue Name>  (36) 
nan

>  <Assay Cell Type>  (36) 
nan

>  <Assay Subcellular Fraction>  (36) 
nan

>  <Organism Tax ID>  (36) 
9606

>  <BAO Format ID>  (36) 
BAO_0000019

>  <Published Type>  (36) 
nan

>  <Published Relation>  (36) 
nan

>  <Published Value>  (36) 
nan

>  <Published Units>  (36) 
nan

>  <Canonical Smiles>  (36) 
COc1cc(C=C2SC(=O)NC2=O)ccc1O

>  <Data Validity Comment>  (36) 
nan

>  <Document Journal>  (36) 
nan

>  <Document Year>  (36) 
nan

>  <SRC ID>  (36) 
7

>  <UO Units>  (36) 
UO_0000065

>  <Potential Duplicate>  (36) 
False

>  <Class>  (36) 
0

$$$$

     RDKit          2D

 28 31  0  0  0  0  0  0  0  0999 V2000
   -8.1673  -10.4486    0.0000 C   0  0  0  0  0  0  0  0  0  0  0  0
   -7.8555   -8.9814    0.0000 O   0  0  0  0  0  0  0  0  0  0  0  0
   -8.9702   -7.9777    0.0000 C   0  0  0  0  0  0  0  0  0  0  0  0
  -10.3968   -8.4412    0.0000 C   0  0  0  0  0  0  0  0  0  0  0  0
  -11.5115   -7.4375    0.0000 C   0  0  0  0  0  0  0  0  0  0  0  0
  -11.1996   -5.9703    0.0000 C   0  0  0  0  0  0  0  0  0  0  0  0
   -9.7730   -5.5068    0.0000 C   0  0  0  0  0  0  0  0  0  0  0  0
   -8.6583   -6.5105    0.0000 C   0  0  0  0  0  0  0  0  0  0  0  0
   -9.4612   -4.0396    0.0000 C   0  0  0  0  0  0  0  0  0  0  0  0
  -10.5759   -3.0359    0.0000 C   0  0  0  0  0  0  0  0  0  0  0  0
   -8.0346   -3.5760    0.0000 N   0  0  0  0  0  0  0  0  0  0  0  0
   -6.9199   -4.5797    0.0000 C   0  0  0  0  0  0  0  0  0  0  0  0
   -7.2317   -6.0469    0.0000 O   0  0  0  0  0  0  0  0  0  0  0  0
   -5.4933   -4.1162    0.0000 N   0  0  0  0  0  0  0  0  0  0  0  0
   -4.3786   -5.1199    0.0000 C   0  0  0  0  0  0  0  0  0  0  0  0
   -2.9520   -4.6564    0.0000 C   0  0  0  0  0  0  0  0  0  0  0  0
   -2.6401   -3.1891    0.0000 C   0  0  0  0  0  0  0  0  0  0  0  0
   -3.7548   -2.1855    0.0000 C   0  0  0  0  0  0  0  0  0  0  0  0
   -5.1814   -2.6490    0.0000 C   0  0  0  0  0  0  0  0  0  0  0  0
   -1.2135   -2.7256    0.0000 C   0  0  0  0  0  0  0  0  0  0  0  0
    0.0000   -3.6073    0.0000 C   0  0  0  0  0  0  0  0  0  0  0  0
    1.2135   -2.7256    0.0000 N   0  0  0  0  0  0  0  0  0  0  0  0
    0.7500   -1.2990    0.0000 C   0  0  0  0  0  0  0  0  0  0  0  0
    1.5000    0.0000    0.0000 N   0  0  0  0  0  0  0  0  0  0  0  0
    0.7500    1.2990    0.0000 C   0  0  0  0  0  0  0  0  0  0  0  0
   -0.7500    1.2990    0.0000 C   0  0  0  0  0  0  0  0  0  0  0  0
   -1.5000    0.0000    0.0000 C   0  0  0  0  0  0  0  0  0  0  0  0
   -0.7500   -1.2990    0.0000 C   0  0  0  0  0  0  0  0  0  0  0  0
  1  2  1  0
  2  3  1  0
  3  4  2  0
  4  5  1  0
  5  6  2  0
  6  7  1  0
  7  8  2  0
  7  9  1  0
  9 10  1  0
  9 11  1  0
 11 12  1  0
 12 13  2  0
 12 14  1  0
 14 15  1  0
 15 16  1  0
 16 17  1  0
 17 18  2  0
 18 19  1  0
 17 20  1  0
 20 21  2  0
 21 22  1  0
 22 23  1  0
 23 24  2  0
 24 25  1  0
 25 26  2  0
 26 27  1  0
 27 28  2  0
  8  3  1  0
 19 14  1  0
 28 20  1  0
 28 23  1  0
M  END
>  <Molecule>  (37) 
CHEMBL1965845

>  <Standard Type>  (37) 
Ki

>  <Standard Relation>  (37) 
>

>  <Standard Value>  (37) 
1584.89

>  <Standard Units>  (37) 
nM

>  <pChEMBL Value>  (37) 
nan

>  <Comment>  (37) 
inactive

>  <Compound Key>  (37) 
SID103905119

>  <Assay>  (37) 
CHEMBL1963742

>  <Assay Description>  (37) 
PUBCHEM_BIOASSAY: Navigating the Kinome. (Class of assay: other) Panel member name: JAK3

>  <BAO Format>  (37) 
assay format

>  <Target>  (37) 
CHEMBL2148

>  <Target Pref. Name>  (37) 
Tyrosine-protein kinase JAK3

>  <Target Organism>  (37) 
Homo sapiens

>  <Target Type>  (37) 
SINGLE PROTEIN

>  <Document>  (37) 
CHEMBL1201862

>  <Source>  (37) 
PubChem BioAssays

>  <Max Phase>  (37) 
0

>  <#Ro5 Violations>  (37) 
0

>  <Molecular Weight>  (37) 
376.46

>  <Ligand Efficiency BEI>  (37) 
nan

>  <Ligand Efficiency LE>  (37) 
nan

>  <Ligand Efficiency LLE>  (37) 
nan

>  <Ligand Efficiency SEI>  (37) 
nan

>  <ALogP>  (37) 
4.13

>  <Assay Organism>  (37) 
nan

>  <Assay Tissue ChEMBL ID>  (37) 
nan

>  <Assay Tissue Name>  (37) 
nan

>  <Assay Cell Type>  (37) 
nan

>  <Assay Subcellular Fraction>  (37) 
nan

>  <Organism Tax ID>  (37) 
9606

>  <BAO Format ID>  (37) 
BAO_0000019

>  <Published Type>  (37) 
nan

>  <Published Relation>  (37) 
nan

>  <Published Value>  (37) 
nan

>  <Published Units>  (37) 
nan

>  <Canonical Smiles>  (37) 
COc1cccc(c1)C(C)NC(=O)N2CCC(=CC2)c3c[nH]c4ncccc34

>  <Data Validity Comment>  (37) 
nan

>  <Document Journal>  (37) 
nan

>  <Document Year>  (37) 
nan

>  <SRC ID>  (37) 
7

>  <UO Units>  (37) 
UO_0000065

>  <Potential Duplicate>  (37) 
False

>  <Class>  (37) 
0

$$$$

     RDKit          2D

 24 27  0  0  0  0  0  0  0  0999 V2000
   -0.1459    3.7548    0.0000 O   0  0  0  0  0  0  0  0  0  0  0  0
    0.8578    2.6401    0.0000 C   0  0  0  0  0  0  0  0  0  0  0  0
    2.3250    2.9520    0.0000 N   0  0  0  0  0  0  0  0  0  0  0  0
    2.7886    4.3786    0.0000 C   0  0  0  0  0  0  0  0  0  0  0  0
    4.2558    4.6904    0.0000 C   0  0  0  0  0  0  0  0  0  0  0  0
    5.2595    3.5757    0.0000 C   0  0  0  0  0  0  0  0  0  0  0  0
    6.7267    3.8876    0.0000 C   0  0  0  0  0  0  0  0  0  0  0  0
    7.1902    5.3142    0.0000 C   0  0  0  0  0  0  0  0  0  0  0  0
    6.1865    6.4289    0.0000 C   0  0  0  0  0  0  0  0  0  0  0  0
    4.7193    6.1170    0.0000 C   0  0  0  0  0  0  0  0  0  0  0  0
    0.3943    1.2135    0.0000 C   0  0  0  0  0  0  0  0  0  0  0  0
    1.2760    0.0000    0.0000 C   0  0  0  0  0  0  0  0  0  0  0  0
    0.3943   -1.2135    0.0000 C   0  0  0  0  0  0  0  0  0  0  0  0
    0.3943   -2.7135    0.0000 C   0  0  0  0  0  0  0  0  0  0  0  0
   -1.0323   -3.1771    0.0000 N   0  0  0  0  0  0  0  0  0  0  0  0
   -1.9140   -1.9635    0.0000 N   0  0  0  0  0  0  0  0  0  0  0  0
   -1.0323   -0.7500    0.0000 C   0  0  0  0  0  0  0  0  0  0  0  0
   -1.0323    0.7500    0.0000 S   0  0  0  0  0  0  0  0  0  0  0  0
    1.6078   -3.5952    0.0000 C   0  0  0  0  0  0  0  0  0  0  0  0
    1.4510   -5.0870    0.0000 C   0  0  0  0  0  0  0  0  0  0  0  0
    2.6646   -5.9687    0.0000 C   0  0  0  0  0  0  0  0  0  0  0  0
    4.0349   -5.3586    0.0000 C   0  0  0  0  0  0  0  0  0  0  0  0
    4.1917   -3.8668    0.0000 C   0  0  0  0  0  0  0  0  0  0  0  0
    2.9781   -2.9851    0.0000 C   0  0  0  0  0  0  0  0  0  0  0  0
  1  2  2  0
  2  3  1  0
  3  4  1  0
  4  5  1  0
  5  6  1  0
  6  7  1  0
  7  8  1  0
  8  9  1  0
  9 10  1  0
  2 11  1  0
 11 12  2  0
 12 13  1  0
 13 14  1  0
 14 15  2  0
 15 16  1  0
 16 17  1  0
 17 18  1  0
 14 19  1  0
 19 20  2  0
 20 21  1  0
 21 22  2  0
 22 23  1  0
 23 24  2  0
 10  5  1  0
 18 11  1  0
 17 13  2  0
 24 19  1  0
M  END
>  <Molecule>  (38) 
CHEMBL2005475

>  <Standard Type>  (38) 
Ki

>  <Standard Relation>  (38) 
>

>  <Standard Value>  (38) 
1584.89

>  <Standard Units>  (38) 
nM

>  <pChEMBL Value>  (38) 
nan

>  <Comment>  (38) 
inactive

>  <Compound Key>  (38) 
SID103904997

>  <Assay>  (38) 
CHEMBL1963742

>  <Assay Description>  (38) 
PUBCHEM_BIOASSAY: Navigating the Kinome. (Class of assay: other) Panel member name: JAK3

>  <BAO Format>  (38) 
assay format

>  <Target>  (38) 
CHEMBL2148

>  <Target Pref. Name>  (38) 
Tyrosine-protein kinase JAK3

>  <Target Organism>  (38) 
Homo sapiens

>  <Target Type>  (38) 
SINGLE PROTEIN

>  <Document>  (38) 
CHEMBL1201862

>  <Source>  (38) 
PubChem BioAssays

>  <Max Phase>  (38) 
0

>  <#Ro5 Violations>  (38) 
0

>  <Molecular Weight>  (38) 
339.46

>  <Ligand Efficiency BEI>  (38) 
nan

>  <Ligand Efficiency LE>  (38) 
nan

>  <Ligand Efficiency LLE>  (38) 
nan

>  <Ligand Efficiency SEI>  (38) 
nan

>  <ALogP>  (38) 
4.6

>  <Assay Organism>  (38) 
nan

>  <Assay Tissue ChEMBL ID>  (38) 
nan

>  <Assay Tissue Name>  (38) 
nan

>  <Assay Cell Type>  (38) 
nan

>  <Assay Subcellular Fraction>  (38) 
nan

>  <Organism Tax ID>  (38) 
9606

>  <BAO Format ID>  (38) 
BAO_0000019

>  <Published Type>  (38) 
nan

>  <Published Relation>  (38) 
nan

>  <Published Value>  (38) 
nan

>  <Published Units>  (38) 
nan

>  <Canonical Smiles>  (38) 
O=C(NCC1CCCCC1)c2cc3c(n[nH]c3s2)c4ccccc4

>  <Data Validity Comment>  (38) 
nan

>  <Document Journal>  (38) 
nan

>  <Document Year>  (38) 
nan

>  <SRC ID>  (38) 
7

>  <UO Units>  (38) 
UO_0000065

>  <Potential Duplicate>  (38) 
False

>  <Class>  (38) 
0

$$$$

     RDKit          2D

 36 39  0  0  0  0  0  0  0  0999 V2000
    2.0229   -4.1579    0.0000 C   0  0  0  0  0  0  0  0  0  0  0  0
    1.0192   -5.2726    0.0000 N   0  0  0  0  0  0  0  0  0  0  0  0
    1.4827   -6.6992    0.0000 C   0  0  0  0  0  0  0  0  0  0  0  0
    2.9499   -7.0111    0.0000 C   0  0  0  0  0  0  0  0  0  0  0  0
    3.4134   -8.4377    0.0000 N   0  0  0  0  0  0  0  0  0  0  0  0
   -0.4481   -4.9608    0.0000 C   0  0  0  0  0  0  0  0  0  0  0  0
   -0.9116   -3.5342    0.0000 O   0  0  0  0  0  0  0  0  0  0  0  0
   -1.4518   -6.0755    0.0000 C   0  0  0  0  0  0  0  0  0  0  0  0
   -0.9882   -7.5021    0.0000 C   0  0  0  0  0  0  0  0  0  0  0  0
   -1.9919   -8.6168    0.0000 C   0  0  0  0  0  0  0  0  0  0  0  0
   -3.4591   -8.3049    0.0000 C   0  0  0  0  0  0  0  0  0  0  0  0
   -3.9227   -6.8783    0.0000 C   0  0  0  0  0  0  0  0  0  0  0  0
   -2.9190   -5.7636    0.0000 C   0  0  0  0  0  0  0  0  0  0  0  0
   -5.3899   -6.5665    0.0000 N   0  0  0  0  0  0  0  0  0  0  0  0
   -6.5046   -7.5702    0.0000 N   0  0  0  0  0  0  0  0  0  0  0  0
   -7.8037   -6.8202    0.0000 C   0  0  0  0  0  0  0  0  0  0  0  0
   -7.4918   -5.3529    0.0000 C   0  0  0  0  0  0  0  0  0  0  0  0
   -6.0000   -5.1962    0.0000 C   0  0  0  0  0  0  0  0  0  0  0  0
   -5.2500   -3.8971    0.0000 N   0  0  0  0  0  0  0  0  0  0  0  0
   -6.0000   -2.5981    0.0000 C   0  0  0  0  0  0  0  0  0  0  0  0
   -7.5000   -2.5981    0.0000 O   0  0  0  0  0  0  0  0  0  0  0  0
   -5.2500   -1.2990    0.0000 N   0  0  0  0  0  0  0  0  0  0  0  0
   -6.0000    0.0000    0.0000 C   0  0  0  0  0  0  0  0  0  0  0  0
   -7.5000    0.0000    0.0000 C   0  0  0  0  0  0  0  0  0  0  0  0
   -8.2500    1.2990    0.0000 C   0  0  0  0  0  0  0  0  0  0  0  0
   -7.5000    2.5981    0.0000 C   0  0  0  0  0  0  0  0  0  0  0  0
   -6.0000    2.5981    0.0000 C   0  0  0  0  0  0  0  0  0  0  0  0
   -5.2500    3.8971    0.0000 C   0  0  0  0  0  0  0  0  0  0  0  0
   -3.7500    3.8971    0.0000 C   0  0  0  0  0  0  0  0  0  0  0  0
   -3.0000    2.5981    0.0000 C   0  0  0  0  0  0  0  0  0  0  0  0
   -3.7500    1.2990    0.0000 C   0  0  0  0  0  0  0  0  0  0  0  0
   -5.2500    1.2990    0.0000 C   0  0  0  0  0  0  0  0  0  0  0  0
   -9.1740   -7.4303    0.0000 C   0  0  0  0  0  0  0  0  0  0  0  0
   -9.7841   -6.0600    0.0000 C   0  0  0  0  0  0  0  0  0  0  0  0
   -8.5639   -8.8006    0.0000 C   0  0  0  0  0  0  0  0  0  0  0  0
  -10.5443   -8.0404    0.0000 C   0  0  0  0  0  0  0  0  0  0  0  0
  1  2  1  0
  2  3  1  0
  3  4  1  0
  4  5  1  0
  2  6  1  0
  6  7  2  0
  6  8  1  0
  8  9  2  0
  9 10  1  0
 10 11  2  0
 11 12  1  0
 12 13  2  0
 12 14  1  0
 14 15  1  0
 15 16  2  0
 16 17  1  0
 17 18  2  0
 18 19  1  0
 19 20  1  0
 20 21  2  0
 20 22  1  0
 22 23  1  0
 23 24  2  0
 24 25  1  0
 25 26  2  0
 26 27  1  0
 27 28  2  0
 28 29  1  0
 29 30  2  0
 30 31  1  0
 31 32  2  0
 16 33  1  0
 33 34  1  0
 33 35  1  0
 33 36  1  0
 13  8  1  0
 18 14  1  0
 32 23  1  0
 32 27  1  0
M  END
>  <Molecule>  (39) 
CHEMBL1979773

>  <Standard Type>  (39) 
Ki

>  <Standard Relation>  (39) 
>

>  <Standard Value>  (39) 
5011.87

>  <Standard Units>  (39) 
nM

>  <pChEMBL Value>  (39) 
nan

>  <Comment>  (39) 
inactive

>  <Compound Key>  (39) 
SID103904836

>  <Assay>  (39) 
CHEMBL1963742

>  <Assay Description>  (39) 
PUBCHEM_BIOASSAY: Navigating the Kinome. (Class of assay: other) Panel member name: JAK3

>  <BAO Format>  (39) 
assay format

>  <Target>  (39) 
CHEMBL2148

>  <Target Pref. Name>  (39) 
Tyrosine-protein kinase JAK3

>  <Target Organism>  (39) 
Homo sapiens

>  <Target Type>  (39) 
SINGLE PROTEIN

>  <Document>  (39) 
CHEMBL1201862

>  <Source>  (39) 
PubChem BioAssays

>  <Max Phase>  (39) 
0

>  <#Ro5 Violations>  (39) 
0

>  <Molecular Weight>  (39) 
484.6

>  <Ligand Efficiency BEI>  (39) 
nan

>  <Ligand Efficiency LE>  (39) 
nan

>  <Ligand Efficiency LLE>  (39) 
nan

>  <Ligand Efficiency SEI>  (39) 
nan

>  <ALogP>  (39) 
5.0

>  <Assay Organism>  (39) 
nan

>  <Assay Tissue ChEMBL ID>  (39) 
nan

>  <Assay Tissue Name>  (39) 
nan

>  <Assay Cell Type>  (39) 
nan

>  <Assay Subcellular Fraction>  (39) 
nan

>  <Organism Tax ID>  (39) 
9606

>  <BAO Format ID>  (39) 
BAO_0000019

>  <Published Type>  (39) 
nan

>  <Published Relation>  (39) 
nan

>  <Published Value>  (39) 
nan

>  <Published Units>  (39) 
nan

>  <Canonical Smiles>  (39) 
CN(CCN)C(=O)c1cccc(c1)n2nc(cc2NC(=O)Nc3cccc4ccccc34)C(C)(C)C

>  <Data Validity Comment>  (39) 
nan

>  <Document Journal>  (39) 
nan

>  <Document Year>  (39) 
nan

>  <SRC ID>  (39) 
7

>  <UO Units>  (39) 
UO_0000065

>  <Potential Duplicate>  (39) 
False

>  <Class>  (39) 
0

$$$$

     RDKit          2D

 25 28  0  0  0  0  0  0  0  0999 V2000
   -7.5000   -7.7942    0.0000 C   0  0  0  0  0  0  0  0  0  0  0  0
   -6.0000   -7.7942    0.0000 O   0  0  0  0  0  0  0  0  0  0  0  0
   -5.2500   -6.4952    0.0000 C   0  0  0  0  0  0  0  0  0  0  0  0
   -3.7500   -6.4952    0.0000 C   0  0  0  0  0  0  0  0  0  0  0  0
   -3.0000   -5.1962    0.0000 C   0  0  0  0  0  0  0  0  0  0  0  0
   -3.7500   -3.8971    0.0000 C   0  0  0  0  0  0  0  0  0  0  0  0
   -3.0000   -2.5981    0.0000 N   0  0  0  0  0  0  0  0  0  0  0  0
   -1.5000   -2.5981    0.0000 C   0  0  0  0  0  0  0  0  0  0  0  0
   -0.7500   -3.8971    0.0000 N   0  0  0  0  0  0  0  0  0  0  0  0
    0.7500   -3.8971    0.0000 C   0  0  0  0  0  0  0  0  0  0  0  0
    1.5000   -2.5981    0.0000 N   0  0  0  0  0  0  0  0  0  0  0  0
    0.7500   -1.2990    0.0000 C   0  0  0  0  0  0  0  0  0  0  0  0
    1.5000    0.0000    0.0000 C   0  0  0  0  0  0  0  0  0  0  0  0
    0.7500    1.2990    0.0000 C   0  0  0  0  0  0  0  0  0  0  0  0
   -0.7500    1.2990    0.0000 C   0  0  0  0  0  0  0  0  0  0  0  0
   -1.5000    0.0000    0.0000 C   0  0  0  0  0  0  0  0  0  0  0  0
   -0.7500   -1.2990    0.0000 C   0  0  0  0  0  0  0  0  0  0  0  0
   -5.2500   -3.8971    0.0000 C   0  0  0  0  0  0  0  0  0  0  0  0
   -6.0000   -5.1962    0.0000 C   0  0  0  0  0  0  0  0  0  0  0  0
   -8.2500   -9.0933    0.0000 C   0  0  0  0  0  0  0  0  0  0  0  0
   -9.7500   -9.0933    0.0000 C   0  0  0  0  0  0  0  0  0  0  0  0
  -10.5000  -10.3923    0.0000 C   0  0  0  0  0  0  0  0  0  0  0  0
   -9.7500  -11.6913    0.0000 C   0  0  0  0  0  0  0  0  0  0  0  0
   -8.2500  -11.6913    0.0000 C   0  0  0  0  0  0  0  0  0  0  0  0
   -7.5000  -10.3923    0.0000 C   0  0  0  0  0  0  0  0  0  0  0  0
  1  2  1  0
  2  3  1  0
  3  4  2  0
  4  5  1  0
  5  6  2  0
  6  7  1  0
  7  8  1  0
  8  9  2  0
  9 10  1  0
 10 11  2  0
 11 12  1  0
 12 13  2  0
 13 14  1  0
 14 15  2  0
 15 16  1  0
 16 17  2  0
  6 18  1  0
 18 19  2  0
  1 20  1  0
 20 21  2  0
 21 22  1  0
 22 23  2  0
 23 24  1  0
 24 25  2  0
 19  3  1  0
 17  8  1  0
 17 12  1  0
 25 20  1  0
M  END
>  <Molecule>  (40) 
CHEMBL1980163

>  <Standard Type>  (40) 
Ki

>  <Standard Relation>  (40) 
>

>  <Standard Value>  (40) 
1584.89

>  <Standard Units>  (40) 
nM

>  <pChEMBL Value>  (40) 
nan

>  <Comment>  (40) 
inactive

>  <Compound Key>  (40) 
SID103904652

>  <Assay>  (40) 
CHEMBL1963742

>  <Assay Description>  (40) 
PUBCHEM_BIOASSAY: Navigating the Kinome. (Class of assay: other) Panel member name: JAK3

>  <BAO Format>  (40) 
assay format

>  <Target>  (40) 
CHEMBL2148

>  <Target Pref. Name>  (40) 
Tyrosine-protein kinase JAK3

>  <Target Organism>  (40) 
Homo sapiens

>  <Target Type>  (40) 
SINGLE PROTEIN

>  <Document>  (40) 
CHEMBL1201862

>  <Source>  (40) 
PubChem BioAssays

>  <Max Phase>  (40) 
0

>  <#Ro5 Violations>  (40) 
0

>  <Molecular Weight>  (40) 
327.39

>  <Ligand Efficiency BEI>  (40) 
nan

>  <Ligand Efficiency LE>  (40) 
nan

>  <Ligand Efficiency LLE>  (40) 
nan

>  <Ligand Efficiency SEI>  (40) 
nan

>  <ALogP>  (40) 
4.95

>  <Assay Organism>  (40) 
nan

>  <Assay Tissue ChEMBL ID>  (40) 
nan

>  <Assay Tissue Name>  (40) 
nan

>  <Assay Cell Type>  (40) 
nan

>  <Assay Subcellular Fraction>  (40) 
nan

>  <Organism Tax ID>  (40) 
9606

>  <BAO Format ID>  (40) 
BAO_0000019

>  <Published Type>  (40) 
nan

>  <Published Relation>  (40) 
nan

>  <Published Value>  (40) 
nan

>  <Published Units>  (40) 
nan

>  <Canonical Smiles>  (40) 
C(Oc1ccc(Nc2ncnc3ccccc23)cc1)c4ccccc4

>  <Data Validity Comment>  (40) 
nan

>  <Document Journal>  (40) 
nan

>  <Document Year>  (40) 
nan

>  <SRC ID>  (40) 
7

>  <UO Units>  (40) 
UO_0000065

>  <Potential Duplicate>  (40) 
False

>  <Class>  (40) 
0

$$$$

     RDKit          2D

 28 31  0  0  0  0  0  0  0  0999 V2000
   -2.6401   -3.1891    0.0000 C   0  0  0  0  0  0  0  0  0  0  0  0
   -1.2135   -2.7256    0.0000 C   0  0  0  0  0  0  0  0  0  0  0  0
   -0.0000   -3.6073    0.0000 N   0  0  0  0  0  0  0  0  0  0  0  0
    1.2135   -2.7256    0.0000 N   0  0  0  0  0  0  0  0  0  0  0  0
    0.7500   -1.2990    0.0000 C   0  0  0  0  0  0  0  0  0  0  0  0
    1.5000    0.0000    0.0000 C   0  0  0  0  0  0  0  0  0  0  0  0
    0.7500    1.2990    0.0000 C   0  0  0  0  0  0  0  0  0  0  0  0
   -0.7500    1.2990    0.0000 C   0  0  0  0  0  0  0  0  0  0  0  0
   -1.5000    0.0000    0.0000 C   0  0  0  0  0  0  0  0  0  0  0  0
   -0.7500   -1.2990    0.0000 C   0  0  0  0  0  0  0  0  0  0  0  0
   -1.5000    2.5981    0.0000 C   0  0  0  0  0  0  0  0  0  0  0  0
   -0.7500    3.8971    0.0000 C   0  0  0  0  0  0  0  0  0  0  0  0
   -1.5000    5.1962    0.0000 N   0  0  0  0  0  0  0  0  0  0  0  0
   -3.0000    5.1962    0.0000 C   0  0  0  0  0  0  0  0  0  0  0  0
   -3.7500    3.8971    0.0000 C   0  0  0  0  0  0  0  0  0  0  0  0
   -5.2500    3.8971    0.0000 O   0  0  0  0  0  0  0  0  0  0  0  0
   -6.0000    5.1962    0.0000 C   0  0  0  0  0  0  0  0  0  0  0  0
   -7.5000    5.1962    0.0000 C   0  0  0  0  0  0  0  0  0  0  0  0
   -8.2500    3.8971    0.0000 N   0  0  0  0  0  0  0  0  0  0  0  0
   -8.2500    6.4952    0.0000 C   0  0  0  0  0  0  0  0  0  0  0  0
   -9.7500    6.4952    0.0000 C   0  0  0  0  0  0  0  0  0  0  0  0
  -10.5000    7.7942    0.0000 C   0  0  0  0  0  0  0  0  0  0  0  0
  -12.0000    7.7942    0.0000 C   0  0  0  0  0  0  0  0  0  0  0  0
  -12.7500    6.4952    0.0000 C   0  0  0  0  0  0  0  0  0  0  0  0
  -12.0000    5.1962    0.0000 C   0  0  0  0  0  0  0  0  0  0  0  0
  -12.7500    3.8971    0.0000 Cl  0  0  0  0  0  0  0  0  0  0  0  0
  -10.5000    5.1962    0.0000 C   0  0  0  0  0  0  0  0  0  0  0  0
   -3.0000    2.5981    0.0000 C   0  0  0  0  0  0  0  0  0  0  0  0
  1  2  1  0
  2  3  2  0
  3  4  1  0
  4  5  1  0
  5  6  2  0
  6  7  1  0
  7  8  2  0
  8  9  1  0
  9 10  2  0
  8 11  1  0
 11 12  2  0
 12 13  1  0
 13 14  2  0
 14 15  1  0
 15 16  1  0
 16 17  1  0
 17 18  1  0
 18 19  1  0
 18 20  1  0
 20 21  1  0
 21 22  2  0
 22 23  1  0
 23 24  2  0
 24 25  1  0
 25 26  1  0
 25 27  2  0
 15 28  2  0
 10  2  1  0
 10  5  1  0
 28 11  1  0
 27 21  1  0
M  END
>  <Molecule>  (41) 
CHEMBL1974870

>  <Standard Type>  (41) 
Ki

>  <Standard Relation>  (41) 
=

>  <Standard Value>  (41) 
794.33

>  <Standard Units>  (41) 
nM

>  <pChEMBL Value>  (41) 
6.1

>  <Comment>  (41) 
active

>  <Compound Key>  (41) 
SID103904479

>  <Assay>  (41) 
CHEMBL1963742

>  <Assay Description>  (41) 
PUBCHEM_BIOASSAY: Navigating the Kinome. (Class of assay: other) Panel member name: JAK3

>  <BAO Format>  (41) 
assay format

>  <Target>  (41) 
CHEMBL2148

>  <Target Pref. Name>  (41) 
Tyrosine-protein kinase JAK3

>  <Target Organism>  (41) 
Homo sapiens

>  <Target Type>  (41) 
SINGLE PROTEIN

>  <Document>  (41) 
CHEMBL1201862

>  <Source>  (41) 
PubChem BioAssays

>  <Max Phase>  (41) 
0

>  <#Ro5 Violations>  (41) 
0

>  <Molecular Weight>  (41) 
392.89

>  <Ligand Efficiency BEI>  (41) 
nan

>  <Ligand Efficiency LE>  (41) 
nan

>  <Ligand Efficiency LLE>  (41) 
nan

>  <Ligand Efficiency SEI>  (41) 
nan

>  <ALogP>  (41) 
4.54

>  <Assay Organism>  (41) 
nan

>  <Assay Tissue ChEMBL ID>  (41) 
nan

>  <Assay Tissue Name>  (41) 
nan

>  <Assay Cell Type>  (41) 
nan

>  <Assay Subcellular Fraction>  (41) 
nan

>  <Organism Tax ID>  (41) 
9606

>  <BAO Format ID>  (41) 
BAO_0000019

>  <Published Type>  (41) 
nan

>  <Published Relation>  (41) 
nan

>  <Published Value>  (41) 
nan

>  <Published Units>  (41) 
nan

>  <Canonical Smiles>  (41) 
Cc1n[nH]c2ccc(cc12)c3cncc(OCC(N)Cc4cccc(Cl)c4)c3

>  <Data Validity Comment>  (41) 
nan

>  <Document Journal>  (41) 
nan

>  <Document Year>  (41) 
nan

>  <SRC ID>  (41) 
7

>  <UO Units>  (41) 
UO_0000065

>  <Potential Duplicate>  (41) 
False

>  <Class>  (41) 
1

$$$$

     RDKit          2D

 38 42  0  0  0  0  0  0  0  0999 V2000
   -3.5736    1.2902    0.0000 N   0  0  0  0  0  0  0  0  0  0  0  0
   -2.1470    1.7537    0.0000 C   0  0  0  0  0  0  0  0  0  0  0  0
   -1.8351    3.2209    0.0000 N   0  0  0  0  0  0  0  0  0  0  0  0
   -0.4086    3.6844    0.0000 C   0  0  0  0  0  0  0  0  0  0  0  0
    0.7062    2.6807    0.0000 C   0  0  0  0  0  0  0  0  0  0  0  0
    2.1328    3.1443    0.0000 C   0  0  0  0  0  0  0  0  0  0  0  0
    2.5963    4.5709    0.0000 C   0  0  0  0  0  0  0  0  0  0  0  0
    4.0963    4.5709    0.0000 N   0  0  0  0  0  0  0  0  0  0  0  0
    4.5598    3.1443    0.0000 N   0  0  0  0  0  0  0  0  0  0  0  0
    5.9864    2.6807    0.0000 C   0  0  0  0  0  0  0  0  0  0  0  0
    6.2983    1.2135    0.0000 C   0  0  0  0  0  0  0  0  0  0  0  0
    7.7248    0.7500    0.0000 O   0  0  0  0  0  0  0  0  0  0  0  0
    3.3463    2.2626    0.0000 C   0  0  0  0  0  0  0  0  0  0  0  0
    0.3943    1.2135    0.0000 C   0  0  0  0  0  0  0  0  0  0  0  0
    1.2760    0.0000    0.0000 S   0  0  0  0  0  0  0  0  0  0  0  0
    0.3943   -1.2135    0.0000 C   0  0  0  0  0  0  0  0  0  0  0  0
   -1.0323   -0.7500    0.0000 C   0  0  0  0  0  0  0  0  0  0  0  0
   -2.2458   -1.6317    0.0000 C   0  0  0  0  0  0  0  0  0  0  0  0
   -3.6161   -1.0216    0.0000 C   0  0  0  0  0  0  0  0  0  0  0  0
   -4.8297   -1.9033    0.0000 C   0  0  0  0  0  0  0  0  0  0  0  0
   -4.6729   -3.3950    0.0000 C   0  0  0  0  0  0  0  0  0  0  0  0
   -5.8864   -4.2767    0.0000 N   0  0  0  0  0  0  0  0  0  0  0  0
   -7.2567   -3.6666    0.0000 C   0  0  0  0  0  0  0  0  0  0  0  0
   -7.4135   -2.1748    0.0000 O   0  0  0  0  0  0  0  0  0  0  0  0
   -8.4702   -4.5483    0.0000 N   0  0  0  0  0  0  0  0  0  0  0  0
   -9.8406   -3.9382    0.0000 C   0  0  0  0  0  0  0  0  0  0  0  0
   -9.9973   -2.4464    0.0000 C   0  0  0  0  0  0  0  0  0  0  0  0
  -11.3677   -1.8363    0.0000 C   0  0  0  0  0  0  0  0  0  0  0  0
  -12.5812   -2.7180    0.0000 C   0  0  0  0  0  0  0  0  0  0  0  0
  -13.9515   -2.1079    0.0000 O   0  0  0  0  0  0  0  0  0  0  0  0
  -14.1083   -0.6161    0.0000 C   0  0  0  0  0  0  0  0  0  0  0  0
  -15.4786   -0.0060    0.0000 F   0  0  0  0  0  0  0  0  0  0  0  0
  -12.8948    0.2656    0.0000 F   0  0  0  0  0  0  0  0  0  0  0  0
  -12.4244   -4.2098    0.0000 C   0  0  0  0  0  0  0  0  0  0  0  0
  -11.0541   -4.8199    0.0000 C   0  0  0  0  0  0  0  0  0  0  0  0
   -3.3025   -4.0051    0.0000 C   0  0  0  0  0  0  0  0  0  0  0  0
   -2.0890   -3.1235    0.0000 C   0  0  0  0  0  0  0  0  0  0  0  0
   -1.0323    0.7500    0.0000 C   0  0  0  0  0  0  0  0  0  0  0  0
  1  2  1  0
  2  3  2  0
  3  4  1  0
  4  5  2  0
  5  6  1  0
  6  7  1  0
  7  8  2  0
  8  9  1  0
  9 10  1  0
 10 11  1  0
 11 12  1  0
  9 13  1  0
  5 14  1  0
 14 15  1  0
 15 16  1  0
 16 17  2  0
 17 18  1  0
 18 19  2  0
 19 20  1  0
 20 21  2  0
 21 22  1  0
 22 23  1  0
 23 24  2  0
 23 25  1  0
 25 26  1  0
 26 27  2  0
 27 28  1  0
 28 29  2  0
 29 30  1  0
 30 31  1  0
 31 32  1  0
 31 33  1  0
 29 34  1  0
 34 35  2  0
 21 36  1  0
 36 37  2  0
 17 38  1  0
 38  2  1  0
 13  6  2  0
 38 14  2  0
 37 18  1  0
 35 26  1  0
M  END
>  <Molecule>  (42) 
CHEMBL1972220

>  <Standard Type>  (42) 
Ki

>  <Standard Relation>  (42) 
>

>  <Standard Value>  (42) 
5011.87

>  <Standard Units>  (42) 
nM

>  <pChEMBL Value>  (42) 
nan

>  <Comment>  (42) 
inactive

>  <Compound Key>  (42) 
SID103904323

>  <Assay>  (42) 
CHEMBL1963742

>  <Assay Description>  (42) 
PUBCHEM_BIOASSAY: Navigating the Kinome. (Class of assay: other) Panel member name: JAK3

>  <BAO Format>  (42) 
assay format

>  <Target>  (42) 
CHEMBL2148

>  <Target Pref. Name>  (42) 
Tyrosine-protein kinase JAK3

>  <Target Organism>  (42) 
Homo sapiens

>  <Target Type>  (42) 
SINGLE PROTEIN

>  <Document>  (42) 
CHEMBL1201862

>  <Source>  (42) 
PubChem BioAssays

>  <Max Phase>  (42) 
0

>  <#Ro5 Violations>  (42) 
2

>  <Molecular Weight>  (42) 
536.56

>  <Ligand Efficiency BEI>  (42) 
nan

>  <Ligand Efficiency LE>  (42) 
nan

>  <Ligand Efficiency LLE>  (42) 
nan

>  <Ligand Efficiency SEI>  (42) 
nan

>  <ALogP>  (42) 
5.65

>  <Assay Organism>  (42) 
nan

>  <Assay Tissue ChEMBL ID>  (42) 
nan

>  <Assay Tissue Name>  (42) 
nan

>  <Assay Cell Type>  (42) 
nan

>  <Assay Subcellular Fraction>  (42) 
nan

>  <Organism Tax ID>  (42) 
9606

>  <BAO Format ID>  (42) 
BAO_0000019

>  <Published Type>  (42) 
nan

>  <Published Relation>  (42) 
nan

>  <Published Value>  (42) 
nan

>  <Published Units>  (42) 
nan

>  <Canonical Smiles>  (42) 
Nc1ncc(c2cnn(CCO)c2)c3scc(c4ccc(NC(=O)Nc5ccc(OC(F)F)cc5)cc4)c13

>  <Data Validity Comment>  (42) 
nan

>  <Document Journal>  (42) 
nan

>  <Document Year>  (42) 
nan

>  <SRC ID>  (42) 
7

>  <UO Units>  (42) 
UO_0000065

>  <Potential Duplicate>  (42) 
False

>  <Class>  (42) 
0

$$$$

     RDKit          2D

 30 34  0  0  0  0  0  0  0  0999 V2000
   -2.6401   -3.1891    0.0000 C   0  0  0  0  0  0  0  0  0  0  0  0
   -1.2135   -2.7256    0.0000 C   0  0  0  0  0  0  0  0  0  0  0  0
   -0.0000   -3.6073    0.0000 N   0  0  0  0  0  0  0  0  0  0  0  0
    1.2135   -2.7256    0.0000 N   0  0  0  0  0  0  0  0  0  0  0  0
    0.7500   -1.2990    0.0000 C   0  0  0  0  0  0  0  0  0  0  0  0
    1.5000    0.0000    0.0000 C   0  0  0  0  0  0  0  0  0  0  0  0
    0.7500    1.2990    0.0000 C   0  0  0  0  0  0  0  0  0  0  0  0
   -0.7500    1.2990    0.0000 C   0  0  0  0  0  0  0  0  0  0  0  0
   -1.5000    0.0000    0.0000 C   0  0  0  0  0  0  0  0  0  0  0  0
   -0.7500   -1.2990    0.0000 C   0  0  0  0  0  0  0  0  0  0  0  0
   -1.5000    2.5981    0.0000 C   0  0  0  0  0  0  0  0  0  0  0  0
   -0.7500    3.8971    0.0000 C   0  0  0  0  0  0  0  0  0  0  0  0
   -1.5000    5.1962    0.0000 N   0  0  0  0  0  0  0  0  0  0  0  0
   -3.0000    5.1962    0.0000 C   0  0  0  0  0  0  0  0  0  0  0  0
   -3.7500    3.8971    0.0000 C   0  0  0  0  0  0  0  0  0  0  0  0
   -5.2500    3.8971    0.0000 O   0  0  0  0  0  0  0  0  0  0  0  0
   -6.0000    5.1962    0.0000 C   0  0  0  0  0  0  0  0  0  0  0  0
   -7.5000    5.1962    0.0000 C   0  0  0  0  0  0  0  0  0  0  0  0
   -8.2500    3.8971    0.0000 N   0  0  0  0  0  0  0  0  0  0  0  0
   -8.2500    6.4952    0.0000 C   0  0  0  0  0  0  0  0  0  0  0  0
   -9.7500    6.4952    0.0000 C   0  0  0  0  0  0  0  0  0  0  0  0
  -10.6317    5.2817    0.0000 C   0  0  0  0  0  0  0  0  0  0  0  0
  -12.0583    5.7452    0.0000 N   0  0  0  0  0  0  0  0  0  0  0  0
  -12.0583    7.2452    0.0000 C   0  0  0  0  0  0  0  0  0  0  0  0
  -13.1730    8.2489    0.0000 C   0  0  0  0  0  0  0  0  0  0  0  0
  -12.8611    9.7161    0.0000 C   0  0  0  0  0  0  0  0  0  0  0  0
  -11.4345   10.1796    0.0000 C   0  0  0  0  0  0  0  0  0  0  0  0
  -10.3198    9.1759    0.0000 C   0  0  0  0  0  0  0  0  0  0  0  0
  -10.6317    7.7087    0.0000 C   0  0  0  0  0  0  0  0  0  0  0  0
   -3.0000    2.5981    0.0000 C   0  0  0  0  0  0  0  0  0  0  0  0
  1  2  1  0
  2  3  2  0
  3  4  1  0
  4  5  1  0
  5  6  2  0
  6  7  1  0
  7  8  2  0
  8  9  1  0
  9 10  2  0
  8 11  1  0
 11 12  2  0
 12 13  1  0
 13 14  2  0
 14 15  1  0
 15 16  1  0
 16 17  1  0
 17 18  1  0
 18 19  1  0
 18 20  1  0
 20 21  1  0
 21 22  2  0
 22 23  1  0
 23 24  1  0
 24 25  2  0
 25 26  1  0
 26 27  2  0
 27 28  1  0
 28 29  2  0
 15 30  2  0
 10  2  1  0
 10  5  1  0
 30 11  1  0
 29 21  1  0
 29 24  1  0
M  END
>  <Molecule>  (43) 
CHEMBL1970903

>  <Standard Type>  (43) 
Ki

>  <Standard Relation>  (43) 
=

>  <Standard Value>  (43) 
316.23

>  <Standard Units>  (43) 
nM

>  <pChEMBL Value>  (43) 
6.5

>  <Comment>  (43) 
active

>  <Compound Key>  (43) 
SID103904484

>  <Assay>  (43) 
CHEMBL1963742

>  <Assay Description>  (43) 
PUBCHEM_BIOASSAY: Navigating the Kinome. (Class of assay: other) Panel member name: JAK3

>  <BAO Format>  (43) 
assay format

>  <Target>  (43) 
CHEMBL2148

>  <Target Pref. Name>  (43) 
Tyrosine-protein kinase JAK3

>  <Target Organism>  (43) 
Homo sapiens

>  <Target Type>  (43) 
SINGLE PROTEIN

>  <Document>  (43) 
CHEMBL1201862

>  <Source>  (43) 
PubChem BioAssays

>  <Max Phase>  (43) 
0

>  <#Ro5 Violations>  (43) 
0

>  <Molecular Weight>  (43) 
397.48

>  <Ligand Efficiency BEI>  (43) 
nan

>  <Ligand Efficiency LE>  (43) 
nan

>  <Ligand Efficiency LLE>  (43) 
nan

>  <Ligand Efficiency SEI>  (43) 
nan

>  <ALogP>  (43) 
4.36

>  <Assay Organism>  (43) 
nan

>  <Assay Tissue ChEMBL ID>  (43) 
nan

>  <Assay Tissue Name>  (43) 
nan

>  <Assay Cell Type>  (43) 
nan

>  <Assay Subcellular Fraction>  (43) 
nan

>  <Organism Tax ID>  (43) 
9606

>  <BAO Format ID>  (43) 
BAO_0000019

>  <Published Type>  (43) 
nan

>  <Published Relation>  (43) 
nan

>  <Published Value>  (43) 
nan

>  <Published Units>  (43) 
nan

>  <Canonical Smiles>  (43) 
Cc1n[nH]c2ccc(cc12)c3cncc(OCC(N)Cc4c[nH]c5ccccc45)c3

>  <Data Validity Comment>  (43) 
nan

>  <Document Journal>  (43) 
nan

>  <Document Year>  (43) 
nan

>  <SRC ID>  (43) 
7

>  <UO Units>  (43) 
UO_0000065

>  <Potential Duplicate>  (43) 
False

>  <Class>  (43) 
1

$$$$

     RDKit          2D

 22 24  0  0  0  0  0  0  0  0999 V2000
   -1.5000   -5.1962    0.0000 F   0  0  0  0  0  0  0  0  0  0  0  0
   -0.7500   -3.8971    0.0000 C   0  0  0  0  0  0  0  0  0  0  0  0
    0.7500   -3.8971    0.0000 C   0  0  0  0  0  0  0  0  0  0  0  0
    1.5000   -2.5981    0.0000 C   0  0  0  0  0  0  0  0  0  0  0  0
    3.0000   -2.5981    0.0000 F   0  0  0  0  0  0  0  0  0  0  0  0
    0.7500   -1.2990    0.0000 C   0  0  0  0  0  0  0  0  0  0  0  0
    1.5000    0.0000    0.0000 N   0  0  0  0  0  0  0  0  0  0  0  0
    0.7500    1.2990    0.0000 C   0  0  0  0  0  0  0  0  0  0  0  0
   -0.7500    1.2990    0.0000 C   0  0  0  0  0  0  0  0  0  0  0  0
   -1.5000    0.0000    0.0000 C   0  0  0  0  0  0  0  0  0  0  0  0
   -3.0000    0.0000    0.0000 N   0  0  0  0  0  0  0  0  0  0  0  0
   -3.7500    1.2990    0.0000 C   0  0  0  0  0  0  0  0  0  0  0  0
   -3.0000    2.5981    0.0000 O   0  0  0  0  0  0  0  0  0  0  0  0
   -5.2500    1.2990    0.0000 N   0  0  0  0  0  0  0  0  0  0  0  0
   -6.0000    2.5981    0.0000 C   0  0  0  0  0  0  0  0  0  0  0  0
   -5.2500    3.8971    0.0000 C   0  0  0  0  0  0  0  0  0  0  0  0
   -6.0000    5.1962    0.0000 N   0  0  0  0  0  0  0  0  0  0  0  0
   -7.5000    5.1962    0.0000 C   0  0  0  0  0  0  0  0  0  0  0  0
   -8.2500    3.8971    0.0000 C   0  0  0  0  0  0  0  0  0  0  0  0
   -7.5000    2.5981    0.0000 N   0  0  0  0  0  0  0  0  0  0  0  0
   -0.7500   -1.2990    0.0000 C   0  0  0  0  0  0  0  0  0  0  0  0
   -1.5000   -2.5981    0.0000 C   0  0  0  0  0  0  0  0  0  0  0  0
  1  2  1  0
  2  3  2  0
  3  4  1  0
  4  5  1  0
  4  6  2  0
  6  7  1  0
  7  8  2  0
  8  9  1  0
  9 10  2  0
 10 11  1  0
 11 12  1  0
 12 13  2  0
 12 14  1  0
 14 15  1  0
 15 16  2  0
 16 17  1  0
 17 18  2  0
 18 19  1  0
 19 20  2  0
 10 21  1  0
 21 22  2  0
 22  2  1  0
 21  6  1  0
 20 15  1  0
M  END
>  <Molecule>  (44) 
CHEMBL1967336

>  <Standard Type>  (44) 
Ki

>  <Standard Relation>  (44) 
>

>  <Standard Value>  (44) 
5011.87

>  <Standard Units>  (44) 
nM

>  <pChEMBL Value>  (44) 
nan

>  <Comment>  (44) 
inactive

>  <Compound Key>  (44) 
SID103904893

>  <Assay>  (44) 
CHEMBL1963742

>  <Assay Description>  (44) 
PUBCHEM_BIOASSAY: Navigating the Kinome. (Class of assay: other) Panel member name: JAK3

>  <BAO Format>  (44) 
assay format

>  <Target>  (44) 
CHEMBL2148

>  <Target Pref. Name>  (44) 
Tyrosine-protein kinase JAK3

>  <Target Organism>  (44) 
Homo sapiens

>  <Target Type>  (44) 
SINGLE PROTEIN

>  <Document>  (44) 
CHEMBL1201862

>  <Source>  (44) 
PubChem BioAssays

>  <Max Phase>  (44) 
0

>  <#Ro5 Violations>  (44) 
0

>  <Molecular Weight>  (44) 
301.26

>  <Ligand Efficiency BEI>  (44) 
nan

>  <Ligand Efficiency LE>  (44) 
nan

>  <Ligand Efficiency LLE>  (44) 
nan

>  <Ligand Efficiency SEI>  (44) 
nan

>  <ALogP>  (44) 
2.95

>  <Assay Organism>  (44) 
nan

>  <Assay Tissue ChEMBL ID>  (44) 
nan

>  <Assay Tissue Name>  (44) 
nan

>  <Assay Cell Type>  (44) 
nan

>  <Assay Subcellular Fraction>  (44) 
nan

>  <Organism Tax ID>  (44) 
9606

>  <BAO Format ID>  (44) 
BAO_0000019

>  <Published Type>  (44) 
nan

>  <Published Relation>  (44) 
nan

>  <Published Value>  (44) 
nan

>  <Published Units>  (44) 
nan

>  <Canonical Smiles>  (44) 
Fc1cc(F)c2nccc(NC(=O)Nc3cnccn3)c2c1

>  <Data Validity Comment>  (44) 
nan

>  <Document Journal>  (44) 
nan

>  <Document Year>  (44) 
nan

>  <SRC ID>  (44) 
7

>  <UO Units>  (44) 
UO_0000065

>  <Potential Duplicate>  (44) 
False

>  <Class>  (44) 
0

$$$$

     RDKit          2D

 22 25  0  0  0  0  0  0  0  0999 V2000
   -7.0211   -9.6517    0.0000 C   0  0  0  0  0  0  0  0  0  0  0  0
   -5.7221   -8.9017    0.0000 O   0  0  0  0  0  0  0  0  0  0  0  0
   -5.7221   -7.4017    0.0000 C   0  0  0  0  0  0  0  0  0  0  0  0
   -7.0211   -6.6517    0.0000 C   0  0  0  0  0  0  0  0  0  0  0  0
   -7.0211   -5.1517    0.0000 C   0  0  0  0  0  0  0  0  0  0  0  0
   -5.7221   -4.4017    0.0000 C   0  0  0  0  0  0  0  0  0  0  0  0
   -4.4231   -5.1517    0.0000 C   0  0  0  0  0  0  0  0  0  0  0  0
   -4.4231   -6.6517    0.0000 C   0  0  0  0  0  0  0  0  0  0  0  0
   -3.1240   -4.4017    0.0000 C   0  0  0  0  0  0  0  0  0  0  0  0
   -1.7537   -5.0118    0.0000 C   0  0  0  0  0  0  0  0  0  0  0  0
   -0.7500   -3.8971    0.0000 C   0  0  0  0  0  0  0  0  0  0  0  0
    0.7500   -3.8971    0.0000 C   0  0  0  0  0  0  0  0  0  0  0  0
    1.5000   -5.1962    0.0000 O   0  0  0  0  0  0  0  0  0  0  0  0
    1.5000   -2.5981    0.0000 N   0  0  0  0  0  0  0  0  0  0  0  0
    0.7500   -1.2990    0.0000 C   0  0  0  0  0  0  0  0  0  0  0  0
    1.5000    0.0000    0.0000 C   0  0  0  0  0  0  0  0  0  0  0  0
    0.7500    1.2990    0.0000 C   0  0  0  0  0  0  0  0  0  0  0  0
   -0.7500    1.2990    0.0000 C   0  0  0  0  0  0  0  0  0  0  0  0
   -1.5000    0.0000    0.0000 C   0  0  0  0  0  0  0  0  0  0  0  0
   -0.7500   -1.2990    0.0000 C   0  0  0  0  0  0  0  0  0  0  0  0
   -1.5000   -2.5981    0.0000 N   0  0  0  0  0  0  0  0  0  0  0  0
   -2.9672   -2.9099    0.0000 C   0  0  0  0  0  0  0  0  0  0  0  0
  1  2  1  0
  2  3  1  0
  3  4  2  0
  4  5  1  0
  5  6  2  0
  6  7  1  0
  7  8  2  0
  7  9  1  0
  9 10  1  0
 10 11  2  0
 11 12  1  0
 12 13  2  0
 12 14  1  0
 14 15  1  0
 15 16  2  0
 16 17  1  0
 17 18  2  0
 18 19  1  0
 19 20  2  0
 20 21  1  0
 21 22  1  0
  8  3  1  0
 22  9  2  0
 21 11  1  0
 20 15  1  0
M  END
>  <Molecule>  (45) 
CHEMBL1991356

>  <Standard Type>  (45) 
Ki

>  <Standard Relation>  (45) 
>

>  <Standard Value>  (45) 
1584.89

>  <Standard Units>  (45) 
nM

>  <pChEMBL Value>  (45) 
nan

>  <Comment>  (45) 
inactive

>  <Compound Key>  (45) 
SID103904914

>  <Assay>  (45) 
CHEMBL1963742

>  <Assay Description>  (45) 
PUBCHEM_BIOASSAY: Navigating the Kinome. (Class of assay: other) Panel member name: JAK3

>  <BAO Format>  (45) 
assay format

>  <Target>  (45) 
CHEMBL2148

>  <Target Pref. Name>  (45) 
Tyrosine-protein kinase JAK3

>  <Target Organism>  (45) 
Homo sapiens

>  <Target Type>  (45) 
SINGLE PROTEIN

>  <Document>  (45) 
CHEMBL1201862

>  <Source>  (45) 
PubChem BioAssays

>  <Max Phase>  (45) 
0

>  <#Ro5 Violations>  (45) 
0

>  <Molecular Weight>  (45) 
290.32

>  <Ligand Efficiency BEI>  (45) 
nan

>  <Ligand Efficiency LE>  (45) 
nan

>  <Ligand Efficiency LLE>  (45) 
nan

>  <Ligand Efficiency SEI>  (45) 
nan

>  <ALogP>  (45) 
3.46

>  <Assay Organism>  (45) 
nan

>  <Assay Tissue ChEMBL ID>  (45) 
nan

>  <Assay Tissue Name>  (45) 
nan

>  <Assay Cell Type>  (45) 
nan

>  <Assay Subcellular Fraction>  (45) 
nan

>  <Organism Tax ID>  (45) 
9606

>  <BAO Format ID>  (45) 
BAO_0000019

>  <Published Type>  (45) 
nan

>  <Published Relation>  (45) 
nan

>  <Published Value>  (45) 
nan

>  <Published Units>  (45) 
nan

>  <Canonical Smiles>  (45) 
COc1cccc(c1)c2cc3C(=O)Nc4ccccc4n3c2

>  <Data Validity Comment>  (45) 
nan

>  <Document Journal>  (45) 
nan

>  <Document Year>  (45) 
nan

>  <SRC ID>  (45) 
7

>  <UO Units>  (45) 
UO_0000065

>  <Potential Duplicate>  (45) 
False

>  <Class>  (45) 
0

$$$$

     RDKit          2D

 12 13  0  0  0  0  0  0  0  0999 V2000
    3.0000    0.0000    0.0000 Cl  0  0  0  0  0  0  0  0  0  0  0  0
    1.5000    0.0000    0.0000 C   0  0  0  0  0  0  0  0  0  0  0  0
    0.7500   -1.2990    0.0000 C   0  0  0  0  0  0  0  0  0  0  0  0
   -0.7500   -1.2990    0.0000 C   0  0  0  0  0  0  0  0  0  0  0  0
   -1.5000    0.0000    0.0000 C   0  0  0  0  0  0  0  0  0  0  0  0
   -0.7500    1.2990    0.0000 C   0  0  0  0  0  0  0  0  0  0  0  0
   -1.5000    2.5981    0.0000 C   0  0  0  0  0  0  0  0  0  0  0  0
   -3.0000    2.5981    0.0000 O   0  0  0  0  0  0  0  0  0  0  0  0
   -0.7500    3.8971    0.0000 N   0  0  0  0  0  0  0  0  0  0  0  0
    0.7500    3.8971    0.0000 C   0  0  0  0  0  0  0  0  0  0  0  0
    1.5000    2.5981    0.0000 N   0  0  0  0  0  0  0  0  0  0  0  0
    0.7500    1.2990    0.0000 C   0  0  0  0  0  0  0  0  0  0  0  0
  1  2  1  0
  2  3  2  0
  3  4  1  0
  4  5  2  0
  5  6  1  0
  6  7  1  0
  7  8  2  0
  7  9  1  0
  9 10  1  0
 10 11  2  0
 11 12  1  0
 12  2  1  0
 12  6  2  0
M  END
>  <Molecule>  (46) 
CHEMBL1949855

>  <Standard Type>  (46) 
Ki

>  <Standard Relation>  (46) 
=

>  <Standard Value>  (46) 
10000.0

>  <Standard Units>  (46) 
nM

>  <pChEMBL Value>  (46) 
5.0

>  <Comment>  (46) 
active

>  <Compound Key>  (46) 
SID103905306

>  <Assay>  (46) 
CHEMBL1963742

>  <Assay Description>  (46) 
PUBCHEM_BIOASSAY: Navigating the Kinome. (Class of assay: other) Panel member name: JAK3

>  <BAO Format>  (46) 
assay format

>  <Target>  (46) 
CHEMBL2148

>  <Target Pref. Name>  (46) 
Tyrosine-protein kinase JAK3

>  <Target Organism>  (46) 
Homo sapiens

>  <Target Type>  (46) 
SINGLE PROTEIN

>  <Document>  (46) 
CHEMBL1201862

>  <Source>  (46) 
PubChem BioAssays

>  <Max Phase>  (46) 
0

>  <#Ro5 Violations>  (46) 
0

>  <Molecular Weight>  (46) 
180.59

>  <Ligand Efficiency BEI>  (46) 
nan

>  <Ligand Efficiency LE>  (46) 
nan

>  <Ligand Efficiency LLE>  (46) 
nan

>  <Ligand Efficiency SEI>  (46) 
nan

>  <ALogP>  (46) 
1.58

>  <Assay Organism>  (46) 
nan

>  <Assay Tissue ChEMBL ID>  (46) 
nan

>  <Assay Tissue Name>  (46) 
nan

>  <Assay Cell Type>  (46) 
nan

>  <Assay Subcellular Fraction>  (46) 
nan

>  <Organism Tax ID>  (46) 
9606

>  <BAO Format ID>  (46) 
BAO_0000019

>  <Published Type>  (46) 
nan

>  <Published Relation>  (46) 
nan

>  <Published Value>  (46) 
nan

>  <Published Units>  (46) 
nan

>  <Canonical Smiles>  (46) 
Clc1cccc2C(=O)NC=Nc12

>  <Data Validity Comment>  (46) 
nan

>  <Document Journal>  (46) 
nan

>  <Document Year>  (46) 
nan

>  <SRC ID>  (46) 
7

>  <UO Units>  (46) 
UO_0000065

>  <Potential Duplicate>  (46) 
False

>  <Class>  (46) 
1

$$$$

     RDKit          2D

 22 24  0  0  0  0  0  0  0  0999 V2000
    4.5000    0.0000    0.0000 N   0  0  0  0  0  0  0  0  0  0  0  0
    3.0000    0.0000    0.0000 C   0  0  0  0  0  0  0  0  0  0  0  0
    1.5000    0.0000    0.0000 C   0  0  0  0  0  0  0  0  0  0  0  0
    0.7500   -1.2990    0.0000 C   0  0  0  0  0  0  0  0  0  0  0  0
   -0.7500   -1.2990    0.0000 C   0  0  0  0  0  0  0  0  0  0  0  0
   -1.5000    0.0000    0.0000 C   0  0  0  0  0  0  0  0  0  0  0  0
   -0.7500    1.2990    0.0000 C   0  0  0  0  0  0  0  0  0  0  0  0
    0.7500    1.2990    0.0000 C   0  0  0  0  0  0  0  0  0  0  0  0
    1.5000    2.5981    0.0000 N   0  0  0  0  0  0  0  0  0  0  0  0
    0.7500    3.8971    0.0000 C   0  0  0  0  0  0  0  0  0  0  0  0
    1.5000    5.1962    0.0000 C   0  0  0  0  0  0  0  0  0  0  0  0
    3.0000    5.1962    0.0000 C   0  0  0  0  0  0  0  0  0  0  0  0
    3.7500    6.4952    0.0000 C   0  0  0  0  0  0  0  0  0  0  0  0
    3.0000    7.7942    0.0000 C   0  0  0  0  0  0  0  0  0  0  0  0
    1.5000    7.7942    0.0000 C   0  0  0  0  0  0  0  0  0  0  0  0
    0.7500    6.4952    0.0000 C   0  0  0  0  0  0  0  0  0  0  0  0
   -3.0000    0.0000    0.0000 C   0  0  0  0  0  0  0  0  0  0  0  0
   -3.7500    1.2990    0.0000 C   0  0  0  0  0  0  0  0  0  0  0  0
   -5.2500    1.2990    0.0000 C   0  0  0  0  0  0  0  0  0  0  0  0
   -6.0000    0.0000    0.0000 N   0  0  0  0  0  0  0  0  0  0  0  0
   -5.2500   -1.2990    0.0000 C   0  0  0  0  0  0  0  0  0  0  0  0
   -3.7500   -1.2990    0.0000 C   0  0  0  0  0  0  0  0  0  0  0  0
  1  2  3  0
  2  3  1  0
  3  4  2  0
  4  5  1  0
  5  6  2  0
  6  7  1  0
  7  8  2  0
  8  9  1  0
  9 10  1  0
 10 11  1  0
 11 12  2  0
 12 13  1  0
 13 14  2  0
 14 15  1  0
 15 16  2  0
  6 17  1  0
 17 18  2  0
 18 19  1  0
 19 20  2  0
 20 21  1  0
 21 22  2  0
  8  3  1  0
 16 11  1  0
 22 17  1  0
M  END
>  <Molecule>  (47) 
CHEMBL1967992

>  <Standard Type>  (47) 
Ki

>  <Standard Relation>  (47) 
>

>  <Standard Value>  (47) 
5011.87

>  <Standard Units>  (47) 
nM

>  <pChEMBL Value>  (47) 
nan

>  <Comment>  (47) 
inactive

>  <Compound Key>  (47) 
SID103904575

>  <Assay>  (47) 
CHEMBL1963742

>  <Assay Description>  (47) 
PUBCHEM_BIOASSAY: Navigating the Kinome. (Class of assay: other) Panel member name: JAK3

>  <BAO Format>  (47) 
assay format

>  <Target>  (47) 
CHEMBL2148

>  <Target Pref. Name>  (47) 
Tyrosine-protein kinase JAK3

>  <Target Organism>  (47) 
Homo sapiens

>  <Target Type>  (47) 
SINGLE PROTEIN

>  <Document>  (47) 
CHEMBL1201862

>  <Source>  (47) 
PubChem BioAssays

>  <Max Phase>  (47) 
0

>  <#Ro5 Violations>  (47) 
0

>  <Molecular Weight>  (47) 
285.35

>  <Ligand Efficiency BEI>  (47) 
nan

>  <Ligand Efficiency LE>  (47) 
nan

>  <Ligand Efficiency LLE>  (47) 
nan

>  <Ligand Efficiency SEI>  (47) 
nan

>  <ALogP>  (47) 
4.23

>  <Assay Organism>  (47) 
nan

>  <Assay Tissue ChEMBL ID>  (47) 
nan

>  <Assay Tissue Name>  (47) 
nan

>  <Assay Cell Type>  (47) 
nan

>  <Assay Subcellular Fraction>  (47) 
nan

>  <Organism Tax ID>  (47) 
9606

>  <BAO Format ID>  (47) 
BAO_0000019

>  <Published Type>  (47) 
nan

>  <Published Relation>  (47) 
nan

>  <Published Value>  (47) 
nan

>  <Published Units>  (47) 
nan

>  <Canonical Smiles>  (47) 
N#Cc1ccc(cc1NCc2ccccc2)c3ccncc3

>  <Data Validity Comment>  (47) 
nan

>  <Document Journal>  (47) 
nan

>  <Document Year>  (47) 
nan

>  <SRC ID>  (47) 
7

>  <UO Units>  (47) 
UO_0000065

>  <Potential Duplicate>  (47) 
False

>  <Class>  (47) 
0

$$$$

     RDKit          2D

 26 29  0  0  0  0  0  0  0  0999 V2000
   -6.6572   -5.7276    0.0000 C   0  0  0  0  0  0  0  0  0  0  0  0
   -6.0471   -4.3573    0.0000 C   0  0  0  0  0  0  0  0  0  0  0  0
   -4.5798   -4.0454    0.0000 O   0  0  0  0  0  0  0  0  0  0  0  0
   -4.4231   -2.5537    0.0000 C   0  0  0  0  0  0  0  0  0  0  0  0
   -5.7934   -1.9435    0.0000 N   0  0  0  0  0  0  0  0  0  0  0  0
   -6.7971   -3.0583    0.0000 N   0  0  0  0  0  0  0  0  0  0  0  0
   -3.1240   -1.8037    0.0000 C   0  0  0  0  0  0  0  0  0  0  0  0
   -1.7537   -2.4138    0.0000 C   0  0  0  0  0  0  0  0  0  0  0  0
   -0.7500   -1.2990    0.0000 C   0  0  0  0  0  0  0  0  0  0  0  0
    0.7500   -1.2990    0.0000 C   0  0  0  0  0  0  0  0  0  0  0  0
    1.5000   -2.5981    0.0000 O   0  0  0  0  0  0  0  0  0  0  0  0
    3.0000   -2.5981    0.0000 C   0  0  0  0  0  0  0  0  0  0  0  0
    3.7500   -3.8971    0.0000 C   0  0  0  0  0  0  0  0  0  0  0  0
    5.2500   -3.8971    0.0000 C   0  0  0  0  0  0  0  0  0  0  0  0
    6.0000   -2.5981    0.0000 C   0  0  0  0  0  0  0  0  0  0  0  0
    5.2500   -1.2990    0.0000 C   0  0  0  0  0  0  0  0  0  0  0  0
    3.7500   -1.2990    0.0000 C   0  0  0  0  0  0  0  0  0  0  0  0
    7.5000   -2.5981    0.0000 C   0  0  0  0  0  0  0  0  0  0  0  0
    9.0000   -2.5981    0.0000 F   0  0  0  0  0  0  0  0  0  0  0  0
    7.5000   -4.0981    0.0000 F   0  0  0  0  0  0  0  0  0  0  0  0
    7.5000   -1.0981    0.0000 F   0  0  0  0  0  0  0  0  0  0  0  0
    1.5000    0.0000    0.0000 C   0  0  0  0  0  0  0  0  0  0  0  0
    0.7500    1.2990    0.0000 N   0  0  0  0  0  0  0  0  0  0  0  0
   -0.7500    1.2990    0.0000 C   0  0  0  0  0  0  0  0  0  0  0  0
   -1.5000    0.0000    0.0000 C   0  0  0  0  0  0  0  0  0  0  0  0
   -2.9672   -0.3119    0.0000 S   0  0  0  0  0  0  0  0  0  0  0  0
  1  2  1  0
  2  3  1  0
  3  4  1  0
  4  5  2  0
  5  6  1  0
  4  7  1  0
  7  8  2  0
  8  9  1  0
  9 10  2  0
 10 11  1  0
 11 12  1  0
 12 13  2  0
 13 14  1  0
 14 15  2  0
 15 16  1  0
 16 17  2  0
 15 18  1  0
 18 19  1  0
 18 20  1  0
 18 21  1  0
 10 22  1  0
 22 23  2  0
 23 24  1  0
 24 25  2  0
 25 26  1  0
  6  2  2  0
 26  7  1  0
 25  9  1  0
 17 12  1  0
M  END
>  <Molecule>  (48) 
CHEMBL1988153

>  <Standard Type>  (48) 
Ki

>  <Standard Relation>  (48) 
>

>  <Standard Value>  (48) 
1584.89

>  <Standard Units>  (48) 
nM

>  <pChEMBL Value>  (48) 
nan

>  <Comment>  (48) 
inactive

>  <Compound Key>  (48) 
SID103905370

>  <Assay>  (48) 
CHEMBL1963742

>  <Assay Description>  (48) 
PUBCHEM_BIOASSAY: Navigating the Kinome. (Class of assay: other) Panel member name: JAK3

>  <BAO Format>  (48) 
assay format

>  <Target>  (48) 
CHEMBL2148

>  <Target Pref. Name>  (48) 
Tyrosine-protein kinase JAK3

>  <Target Organism>  (48) 
Homo sapiens

>  <Target Type>  (48) 
SINGLE PROTEIN

>  <Document>  (48) 
CHEMBL1201862

>  <Source>  (48) 
PubChem BioAssays

>  <Max Phase>  (48) 
0

>  <#Ro5 Violations>  (48) 
1

>  <Molecular Weight>  (48) 
377.35

>  <Ligand Efficiency BEI>  (48) 
nan

>  <Ligand Efficiency LE>  (48) 
nan

>  <Ligand Efficiency LLE>  (48) 
nan

>  <Ligand Efficiency SEI>  (48) 
nan

>  <ALogP>  (48) 
5.47

>  <Assay Organism>  (48) 
nan

>  <Assay Tissue ChEMBL ID>  (48) 
nan

>  <Assay Tissue Name>  (48) 
nan

>  <Assay Cell Type>  (48) 
nan

>  <Assay Subcellular Fraction>  (48) 
nan

>  <Organism Tax ID>  (48) 
9606

>  <BAO Format ID>  (48) 
BAO_0000019

>  <Published Type>  (48) 
nan

>  <Published Relation>  (48) 
nan

>  <Published Value>  (48) 
nan

>  <Published Units>  (48) 
nan

>  <Canonical Smiles>  (48) 
Cc1oc(nn1)c2cc3c(Oc4ccc(cc4)C(F)(F)F)cncc3s2

>  <Data Validity Comment>  (48) 
nan

>  <Document Journal>  (48) 
nan

>  <Document Year>  (48) 
nan

>  <SRC ID>  (48) 
7

>  <UO Units>  (48) 
UO_0000065

>  <Potential Duplicate>  (48) 
False

>  <Class>  (48) 
0

$$$$

     RDKit          2D

 27 30  0  0  0  0  0  0  0  0999 V2000
   -2.6401   -3.1891    0.0000 C   0  0  0  0  0  0  0  0  0  0  0  0
   -1.2135   -2.7256    0.0000 N   0  0  0  0  0  0  0  0  0  0  0  0
   -0.0000   -3.6073    0.0000 C   0  0  0  0  0  0  0  0  0  0  0  0
    1.2135   -2.7256    0.0000 C   0  0  0  0  0  0  0  0  0  0  0  0
    2.6401   -3.1891    0.0000 C   0  0  0  0  0  0  0  0  0  0  0  0
    3.7548   -2.1855    0.0000 C   0  0  0  0  0  0  0  0  0  0  0  0
    5.1814   -2.6490    0.0000 N   0  0  0  0  0  0  0  0  0  0  0  0
    2.9520   -4.6564    0.0000 C   0  0  0  0  0  0  0  0  0  0  0  0
    1.8373   -5.6601    0.0000 C   0  0  0  0  0  0  0  0  0  0  0  0
    2.1491   -7.1273    0.0000 N   0  0  0  0  0  0  0  0  0  0  0  0
    3.5757   -7.5908    0.0000 C   0  0  0  0  0  0  0  0  0  0  0  0
    4.6904   -6.5871    0.0000 C   0  0  0  0  0  0  0  0  0  0  0  0
    6.1170   -7.0506    0.0000 C   0  0  0  0  0  0  0  0  0  0  0  0
    6.4289   -8.5179    0.0000 C   0  0  0  0  0  0  0  0  0  0  0  0
    7.8555   -8.9814    0.0000 C   0  0  0  0  0  0  0  0  0  0  0  0
    8.1673  -10.4486    0.0000 C   0  0  0  0  0  0  0  0  0  0  0  0
    9.5939  -10.9121    0.0000 C   0  0  0  0  0  0  0  0  0  0  0  0
   10.7086   -9.9084    0.0000 N   0  0  0  0  0  0  0  0  0  0  0  0
   10.3968   -8.4412    0.0000 C   0  0  0  0  0  0  0  0  0  0  0  0
    8.9702   -7.9777    0.0000 C   0  0  0  0  0  0  0  0  0  0  0  0
    4.3786   -5.1199    0.0000 C   0  0  0  0  0  0  0  0  0  0  0  0
    0.7500   -1.2990    0.0000 C   0  0  0  0  0  0  0  0  0  0  0  0
    1.5000    0.0000    0.0000 C   0  0  0  0  0  0  0  0  0  0  0  0
    0.7500    1.2990    0.0000 C   0  0  0  0  0  0  0  0  0  0  0  0
   -0.7500    1.2990    0.0000 C   0  0  0  0  0  0  0  0  0  0  0  0
   -1.5000    0.0000    0.0000 C   0  0  0  0  0  0  0  0  0  0  0  0
   -0.7500   -1.2990    0.0000 C   0  0  0  0  0  0  0  0  0  0  0  0
  1  2  1  0
  2  3  1  0
  3  4  2  0
  4  5  1  0
  5  6  1  0
  6  7  1  0
  5  8  1  0
  8  9  2  0
  9 10  1  0
 10 11  2  0
 11 12  1  0
 12 13  1  0
 13 14  2  3
 14 15  1  0
 15 16  2  0
 16 17  1  0
 17 18  2  0
 18 19  1  0
 19 20  2  0
 12 21  2  0
  4 22  1  0
 22 23  2  0
 23 24  1  0
 24 25  2  0
 25 26  1  0
 26 27  2  0
 27  2  1  0
 21  8  1  0
 20 15  1  0
 27 22  1  0
M  END
>  <Molecule>  (49) 
CHEMBL1979357

>  <Standard Type>  (49) 
Ki

>  <Standard Relation>  (49) 
>

>  <Standard Value>  (49) 
1584.89

>  <Standard Units>  (49) 
nM

>  <pChEMBL Value>  (49) 
nan

>  <Comment>  (49) 
inactive

>  <Compound Key>  (49) 
SID103905237

>  <Assay>  (49) 
CHEMBL1963742

>  <Assay Description>  (49) 
PUBCHEM_BIOASSAY: Navigating the Kinome. (Class of assay: other) Panel member name: JAK3

>  <BAO Format>  (49) 
assay format

>  <Target>  (49) 
CHEMBL2148

>  <Target Pref. Name>  (49) 
Tyrosine-protein kinase JAK3

>  <Target Organism>  (49) 
Homo sapiens

>  <Target Type>  (49) 
SINGLE PROTEIN

>  <Document>  (49) 
CHEMBL1201862

>  <Source>  (49) 
PubChem BioAssays

>  <Max Phase>  (49) 
0

>  <#Ro5 Violations>  (49) 
0

>  <Molecular Weight>  (49) 
354.46

>  <Ligand Efficiency BEI>  (49) 
nan

>  <Ligand Efficiency LE>  (49) 
nan

>  <Ligand Efficiency LLE>  (49) 
nan

>  <Ligand Efficiency SEI>  (49) 
nan

>  <ALogP>  (49) 
4.23

>  <Assay Organism>  (49) 
nan

>  <Assay Tissue ChEMBL ID>  (49) 
nan

>  <Assay Tissue Name>  (49) 
nan

>  <Assay Cell Type>  (49) 
nan

>  <Assay Subcellular Fraction>  (49) 
nan

>  <Organism Tax ID>  (49) 
9606

>  <BAO Format ID>  (49) 
BAO_0000019

>  <Published Type>  (49) 
nan

>  <Published Relation>  (49) 
nan

>  <Published Value>  (49) 
nan

>  <Published Units>  (49) 
nan

>  <Canonical Smiles>  (49) 
Cn1cc(C(CN)c2cncc(C=Cc3ccncc3)c2)c4ccccc14

>  <Data Validity Comment>  (49) 
nan

>  <Document Journal>  (49) 
nan

>  <Document Year>  (49) 
nan

>  <SRC ID>  (49) 
7

>  <UO Units>  (49) 
UO_0000065

>  <Potential Duplicate>  (49) 
False

>  <Class>  (49) 
0

$$$$

     RDKit          2D

 37 40  0  0  0  0  0  0  0  0999 V2000
    3.4901   -4.4698    0.0000 C   0  0  0  0  0  0  0  0  0  0  0  0
    2.0229   -4.1579    0.0000 C   0  0  0  0  0  0  0  0  0  0  0  0
    1.0192   -5.2726    0.0000 N   0  0  0  0  0  0  0  0  0  0  0  0
    1.4827   -6.6992    0.0000 C   0  0  0  0  0  0  0  0  0  0  0  0
    2.9499   -7.0111    0.0000 C   0  0  0  0  0  0  0  0  0  0  0  0
    3.4134   -8.4377    0.0000 N   0  0  0  0  0  0  0  0  0  0  0  0
   -0.4481   -4.9608    0.0000 C   0  0  0  0  0  0  0  0  0  0  0  0
   -0.9116   -3.5342    0.0000 O   0  0  0  0  0  0  0  0  0  0  0  0
   -1.4518   -6.0755    0.0000 C   0  0  0  0  0  0  0  0  0  0  0  0
   -0.9882   -7.5021    0.0000 C   0  0  0  0  0  0  0  0  0  0  0  0
   -1.9919   -8.6168    0.0000 C   0  0  0  0  0  0  0  0  0  0  0  0
   -3.4591   -8.3049    0.0000 C   0  0  0  0  0  0  0  0  0  0  0  0
   -3.9227   -6.8783    0.0000 C   0  0  0  0  0  0  0  0  0  0  0  0
   -2.9190   -5.7636    0.0000 C   0  0  0  0  0  0  0  0  0  0  0  0
   -5.3899   -6.5665    0.0000 N   0  0  0  0  0  0  0  0  0  0  0  0
   -6.5046   -7.5702    0.0000 N   0  0  0  0  0  0  0  0  0  0  0  0
   -7.8037   -6.8202    0.0000 C   0  0  0  0  0  0  0  0  0  0  0  0
   -7.4918   -5.3529    0.0000 C   0  0  0  0  0  0  0  0  0  0  0  0
   -6.0000   -5.1962    0.0000 C   0  0  0  0  0  0  0  0  0  0  0  0
   -5.2500   -3.8971    0.0000 N   0  0  0  0  0  0  0  0  0  0  0  0
   -6.0000   -2.5981    0.0000 C   0  0  0  0  0  0  0  0  0  0  0  0
   -7.5000   -2.5981    0.0000 O   0  0  0  0  0  0  0  0  0  0  0  0
   -5.2500   -1.2990    0.0000 N   0  0  0  0  0  0  0  0  0  0  0  0
   -6.0000    0.0000    0.0000 C   0  0  0  0  0  0  0  0  0  0  0  0
   -7.5000    0.0000    0.0000 C   0  0  0  0  0  0  0  0  0  0  0  0
   -8.2500    1.2990    0.0000 C   0  0  0  0  0  0  0  0  0  0  0  0
   -7.5000    2.5981    0.0000 C   0  0  0  0  0  0  0  0  0  0  0  0
   -6.0000    2.5981    0.0000 C   0  0  0  0  0  0  0  0  0  0  0  0
   -5.2500    3.8971    0.0000 C   0  0  0  0  0  0  0  0  0  0  0  0
   -3.7500    3.8971    0.0000 C   0  0  0  0  0  0  0  0  0  0  0  0
   -3.0000    2.5981    0.0000 C   0  0  0  0  0  0  0  0  0  0  0  0
   -3.7500    1.2990    0.0000 C   0  0  0  0  0  0  0  0  0  0  0  0
   -5.2500    1.2990    0.0000 C   0  0  0  0  0  0  0  0  0  0  0  0
   -9.1740   -7.4303    0.0000 C   0  0  0  0  0  0  0  0  0  0  0  0
   -9.7841   -6.0600    0.0000 C   0  0  0  0  0  0  0  0  0  0  0  0
   -8.5639   -8.8006    0.0000 C   0  0  0  0  0  0  0  0  0  0  0  0
  -10.5443   -8.0404    0.0000 C   0  0  0  0  0  0  0  0  0  0  0  0
  1  2  1  0
  2  3  1  0
  3  4  1  0
  4  5  1  0
  5  6  1  0
  3  7  1  0
  7  8  2  0
  7  9  1  0
  9 10  2  0
 10 11  1  0
 11 12  2  0
 12 13  1  0
 13 14  2  0
 13 15  1  0
 15 16  1  0
 16 17  2  0
 17 18  1  0
 18 19  2  0
 19 20  1  0
 20 21  1  0
 21 22  2  0
 21 23  1  0
 23 24  1  0
 24 25  2  0
 25 26  1  0
 26 27  2  0
 27 28  1  0
 28 29  2  0
 29 30  1  0
 30 31  2  0
 31 32  1  0
 32 33  2  0
 17 34  1  0
 34 35  1  0
 34 36  1  0
 34 37  1  0
 14  9  1  0
 19 15  1  0
 33 24  1  0
 33 28  1  0
M  END
>  <Molecule>  (50) 
CHEMBL2004637

>  <Standard Type>  (50) 
Ki

>  <Standard Relation>  (50) 
=

>  <Standard Value>  (50) 
3162.28

>  <Standard Units>  (50) 
nM

>  <pChEMBL Value>  (50) 
5.5

>  <Comment>  (50) 
active

>  <Compound Key>  (50) 
SID103904825

>  <Assay>  (50) 
CHEMBL1963742

>  <Assay Description>  (50) 
PUBCHEM_BIOASSAY: Navigating the Kinome. (Class of assay: other) Panel member name: JAK3

>  <BAO Format>  (50) 
assay format

>  <Target>  (50) 
CHEMBL2148

>  <Target Pref. Name>  (50) 
Tyrosine-protein kinase JAK3

>  <Target Organism>  (50) 
Homo sapiens

>  <Target Type>  (50) 
SINGLE PROTEIN

>  <Document>  (50) 
CHEMBL1201862

>  <Source>  (50) 
PubChem BioAssays

>  <Max Phase>  (50) 
0

>  <#Ro5 Violations>  (50) 
1

>  <Molecular Weight>  (50) 
498.63

>  <Ligand Efficiency BEI>  (50) 
nan

>  <Ligand Efficiency LE>  (50) 
nan

>  <Ligand Efficiency LLE>  (50) 
nan

>  <Ligand Efficiency SEI>  (50) 
nan

>  <ALogP>  (50) 
5.39

>  <Assay Organism>  (50) 
nan

>  <Assay Tissue ChEMBL ID>  (50) 
nan

>  <Assay Tissue Name>  (50) 
nan

>  <Assay Cell Type>  (50) 
nan

>  <Assay Subcellular Fraction>  (50) 
nan

>  <Organism Tax ID>  (50) 
9606

>  <BAO Format ID>  (50) 
BAO_0000019

>  <Published Type>  (50) 
nan

>  <Published Relation>  (50) 
nan

>  <Published Value>  (50) 
nan

>  <Published Units>  (50) 
nan

>  <Canonical Smiles>  (50) 
CCN(CCN)C(=O)c1cccc(c1)n2nc(cc2NC(=O)Nc3cccc4ccccc34)C(C)(C)C

>  <Data Validity Comment>  (50) 
nan

>  <Document Journal>  (50) 
nan

>  <Document Year>  (50) 
nan

>  <SRC ID>  (50) 
7

>  <UO Units>  (50) 
UO_0000065

>  <Potential Duplicate>  (50) 
False

>  <Class>  (50) 
1

$$$$

     RDKit          2D

 20 22  0  0  0  0  0  0  0  0999 V2000
   -5.2500   -3.8971    0.0000 O   0  0  0  0  0  0  0  0  0  0  0  0
   -3.7500   -3.8971    0.0000 C   0  0  0  0  0  0  0  0  0  0  0  0
   -3.0000   -2.5981    0.0000 C   0  0  0  0  0  0  0  0  0  0  0  0
   -3.7500   -1.2990    0.0000 C   0  0  0  0  0  0  0  0  0  0  0  0
   -4.5000    0.0000    0.0000 N   0  0  0  0  0  0  0  0  0  0  0  0
   -1.5000   -2.5981    0.0000 C   0  0  0  0  0  0  0  0  0  0  0  0
   -0.7500   -3.8971    0.0000 C   0  0  0  0  0  0  0  0  0  0  0  0
    0.7500   -3.8971    0.0000 C   0  0  0  0  0  0  0  0  0  0  0  0
    1.5000   -5.1962    0.0000 N   0  0  0  0  0  0  0  0  0  0  0  0
    1.5000   -2.5981    0.0000 O   0  0  0  0  0  0  0  0  0  0  0  0
    0.7500   -1.2990    0.0000 C   0  0  0  0  0  0  0  0  0  0  0  0
    1.5000    0.0000    0.0000 C   0  0  0  0  0  0  0  0  0  0  0  0
    0.7500    1.2990    0.0000 C   0  0  0  0  0  0  0  0  0  0  0  0
   -0.7500    1.2990    0.0000 C   0  0  0  0  0  0  0  0  0  0  0  0
   -1.5000    2.5981    0.0000 Cl  0  0  0  0  0  0  0  0  0  0  0  0
   -1.5000    0.0000    0.0000 C   0  0  0  0  0  0  0  0  0  0  0  0
   -0.7500   -1.2990    0.0000 C   0  0  0  0  0  0  0  0  0  0  0  0
   -1.5000   -5.1962    0.0000 C   0  0  0  0  0  0  0  0  0  0  0  0
   -0.7500   -6.4952    0.0000 O   0  0  0  0  0  0  0  0  0  0  0  0
   -3.0000   -5.1962    0.0000 N   0  0  0  0  0  0  0  0  0  0  0  0
  1  2  1  0
  2  3  2  0
  3  4  1  0
  4  5  3  0
  3  6  1  0
  6  7  2  0
  7  8  1  0
  8  9  2  0
  8 10  1  0
 10 11  1  0
 11 12  2  0
 12 13  1  0
 13 14  2  0
 14 15  1  0
 14 16  1  0
 16 17  2  0
  7 18  1  0
 18 19  2  0
 18 20  1  0
 20  2  1  0
 17  6  1  0
 17 11  1  0
M  END
>  <Molecule>  (51) 
CHEMBL1973711

>  <Standard Type>  (51) 
Ki

>  <Standard Relation>  (51) 
>

>  <Standard Value>  (51) 
1584.89

>  <Standard Units>  (51) 
nM

>  <pChEMBL Value>  (51) 
nan

>  <Comment>  (51) 
inactive

>  <Compound Key>  (51) 
SID103905594

>  <Assay>  (51) 
CHEMBL1963742

>  <Assay Description>  (51) 
PUBCHEM_BIOASSAY: Navigating the Kinome. (Class of assay: other) Panel member name: JAK3

>  <BAO Format>  (51) 
assay format

>  <Target>  (51) 
CHEMBL2148

>  <Target Pref. Name>  (51) 
Tyrosine-protein kinase JAK3

>  <Target Organism>  (51) 
Homo sapiens

>  <Target Type>  (51) 
SINGLE PROTEIN

>  <Document>  (51) 
CHEMBL1201862

>  <Source>  (51) 
PubChem BioAssays

>  <Max Phase>  (51) 
0

>  <#Ro5 Violations>  (51) 
0

>  <Molecular Weight>  (51) 
287.66

>  <Ligand Efficiency BEI>  (51) 
nan

>  <Ligand Efficiency LE>  (51) 
nan

>  <Ligand Efficiency LLE>  (51) 
nan

>  <Ligand Efficiency SEI>  (51) 
nan

>  <ALogP>  (51) 
1.98

>  <Assay Organism>  (51) 
nan

>  <Assay Tissue ChEMBL ID>  (51) 
nan

>  <Assay Tissue Name>  (51) 
nan

>  <Assay Cell Type>  (51) 
nan

>  <Assay Subcellular Fraction>  (51) 
nan

>  <Organism Tax ID>  (51) 
9606

>  <BAO Format ID>  (51) 
BAO_0000019

>  <Published Type>  (51) 
nan

>  <Published Relation>  (51) 
nan

>  <Published Value>  (51) 
nan

>  <Published Units>  (51) 
nan

>  <Canonical Smiles>  (51) 
OC1=C(C#N)C2=C(C(=N)Oc3ccc(Cl)cc23)C(=O)N1

>  <Data Validity Comment>  (51) 
nan

>  <Document Journal>  (51) 
nan

>  <Document Year>  (51) 
nan

>  <SRC ID>  (51) 
7

>  <UO Units>  (51) 
UO_0000065

>  <Potential Duplicate>  (51) 
False

>  <Class>  (51) 
0

$$$$

     RDKit          2D

 33 37  0  0  0  0  0  0  0  0999 V2000
   10.0480    9.9058    0.0000 C   0  0  0  0  0  0  0  0  0  0  0  0
    8.5808    9.5939    0.0000 C   0  0  0  0  0  0  0  0  0  0  0  0
    8.1173    8.1673    0.0000 C   0  0  0  0  0  0  0  0  0  0  0  0
    6.6501    7.8555    0.0000 C   0  0  0  0  0  0  0  0  0  0  0  0
    5.6464    8.9702    0.0000 C   0  0  0  0  0  0  0  0  0  0  0  0
    4.1791    8.6583    0.0000 N   0  0  0  0  0  0  0  0  0  0  0  0
    3.7156    7.2317    0.0000 C   0  0  0  0  0  0  0  0  0  0  0  0
    4.7193    6.1170    0.0000 O   0  0  0  0  0  0  0  0  0  0  0  0
    2.2484    6.9199    0.0000 N   0  0  0  0  0  0  0  0  0  0  0  0
    1.7849    5.4933    0.0000 C   0  0  0  0  0  0  0  0  0  0  0  0
    0.3177    5.1814    0.0000 C   0  0  0  0  0  0  0  0  0  0  0  0
   -0.1459    3.7548    0.0000 C   0  0  0  0  0  0  0  0  0  0  0  0
    0.8578    2.6401    0.0000 C   0  0  0  0  0  0  0  0  0  0  0  0
    2.3250    2.9520    0.0000 C   0  0  0  0  0  0  0  0  0  0  0  0
    2.7886    4.3786    0.0000 C   0  0  0  0  0  0  0  0  0  0  0  0
    0.3943    1.2135    0.0000 C   0  0  0  0  0  0  0  0  0  0  0  0
    1.2760    0.0000    0.0000 C   0  0  0  0  0  0  0  0  0  0  0  0
    0.3943   -1.2135    0.0000 S   0  0  0  0  0  0  0  0  0  0  0  0
   -1.0323   -0.7500    0.0000 C   0  0  0  0  0  0  0  0  0  0  0  0
   -2.3313   -1.5000    0.0000 C   0  0  0  0  0  0  0  0  0  0  0  0
   -3.6304   -0.7500    0.0000 C   0  0  0  0  0  0  0  0  0  0  0  0
   -3.6304    0.7500    0.0000 N   0  0  0  0  0  0  0  0  0  0  0  0
   -2.3313    1.5000    0.0000 C   0  0  0  0  0  0  0  0  0  0  0  0
   -2.3313    3.0000    0.0000 N   0  0  0  0  0  0  0  0  0  0  0  0
   -1.0323    0.7500    0.0000 C   0  0  0  0  0  0  0  0  0  0  0  0
   -2.3313   -3.0000    0.0000 C   0  0  0  0  0  0  0  0  0  0  0  0
   -1.1178   -3.8817    0.0000 C   0  0  0  0  0  0  0  0  0  0  0  0
   -1.5813   -5.3083    0.0000 N   0  0  0  0  0  0  0  0  0  0  0  0
   -3.0813   -5.3083    0.0000 N   0  0  0  0  0  0  0  0  0  0  0  0
   -3.9630   -6.5218    0.0000 C   0  0  0  0  0  0  0  0  0  0  0  0
   -3.5449   -3.8817    0.0000 C   0  0  0  0  0  0  0  0  0  0  0  0
    6.1099   10.3968    0.0000 C   0  0  0  0  0  0  0  0  0  0  0  0
    7.5771   10.7086    0.0000 C   0  0  0  0  0  0  0  0  0  0  0  0
  1  2  1  0
  2  3  2  0
  3  4  1  0
  4  5  2  0
  5  6  1  0
  6  7  1  0
  7  8  2  0
  7  9  1  0
  9 10  1  0
 10 11  2  0
 11 12  1  0
 12 13  2  0
 13 14  1  0
 14 15  2  0
 13 16  1  0
 16 17  2  0
 17 18  1  0
 18 19  1  0
 19 20  2  0
 20 21  1  0
 21 22  2  0
 22 23  1  0
 23 24  1  0
 23 25  2  0
 20 26  1  0
 26 27  1  0
 27 28  2  0
 28 29  1  0
 29 30  1  0
 29 31  1  0
  5 32  1  0
 32 33  2  0
 33  2  1  0
 15 10  1  0
 25 16  1  0
 25 19  1  0
 31 26  2  0
M  END
>  <Molecule>  (52) 
CHEMBL1982466

>  <Standard Type>  (52) 
Ki

>  <Standard Relation>  (52) 
>

>  <Standard Value>  (52) 
1584.89

>  <Standard Units>  (52) 
nM

>  <pChEMBL Value>  (52) 
nan

>  <Comment>  (52) 
inactive

>  <Compound Key>  (52) 
SID103904290

>  <Assay>  (52) 
CHEMBL1963742

>  <Assay Description>  (52) 
PUBCHEM_BIOASSAY: Navigating the Kinome. (Class of assay: other) Panel member name: JAK3

>  <BAO Format>  (52) 
assay format

>  <Target>  (52) 
CHEMBL2148

>  <Target Pref. Name>  (52) 
Tyrosine-protein kinase JAK3

>  <Target Organism>  (52) 
Homo sapiens

>  <Target Type>  (52) 
SINGLE PROTEIN

>  <Document>  (52) 
CHEMBL1201862

>  <Source>  (52) 
PubChem BioAssays

>  <Max Phase>  (52) 
0

>  <#Ro5 Violations>  (52) 
1

>  <Molecular Weight>  (52) 
454.56

>  <Ligand Efficiency BEI>  (52) 
nan

>  <Ligand Efficiency LE>  (52) 
nan

>  <Ligand Efficiency LLE>  (52) 
nan

>  <Ligand Efficiency SEI>  (52) 
nan

>  <ALogP>  (52) 
5.9

>  <Assay Organism>  (52) 
nan

>  <Assay Tissue ChEMBL ID>  (52) 
nan

>  <Assay Tissue Name>  (52) 
nan

>  <Assay Cell Type>  (52) 
nan

>  <Assay Subcellular Fraction>  (52) 
nan

>  <Organism Tax ID>  (52) 
9606

>  <BAO Format ID>  (52) 
BAO_0000019

>  <Published Type>  (52) 
nan

>  <Published Relation>  (52) 
nan

>  <Published Value>  (52) 
nan

>  <Published Units>  (52) 
nan

>  <Canonical Smiles>  (52) 
Cc1ccc(NC(=O)Nc2ccc(cc2)c3csc4c(cnc(N)c34)c5cnn(C)c5)cc1

>  <Data Validity Comment>  (52) 
nan

>  <Document Journal>  (52) 
nan

>  <Document Year>  (52) 
nan

>  <SRC ID>  (52) 
7

>  <UO Units>  (52) 
UO_0000065

>  <Potential Duplicate>  (52) 
False

>  <Class>  (52) 
0

$$$$

     RDKit          2D

 31 34  0  0  0  0  0  0  0  0999 V2000
    3.0000    0.0000    0.0000 N   0  0  0  0  0  0  0  0  0  0  0  0
    1.5000    0.0000    0.0000 C   0  0  0  0  0  0  0  0  0  0  0  0
    0.7500   -1.2990    0.0000 N   0  0  0  0  0  0  0  0  0  0  0  0
   -0.7500   -1.2990    0.0000 C   0  0  0  0  0  0  0  0  0  0  0  0
   -1.5000    0.0000    0.0000 N   0  0  0  0  0  0  0  0  0  0  0  0
   -0.7500    1.2990    0.0000 C   0  0  0  0  0  0  0  0  0  0  0  0
   -1.2135    2.7256    0.0000 S   0  0  0  0  0  0  0  0  0  0  0  0
   -0.0000    3.6073    0.0000 C   0  0  0  0  0  0  0  0  0  0  0  0
    1.2135    2.7256    0.0000 C   0  0  0  0  0  0  0  0  0  0  0  0
    2.6401    3.1891    0.0000 C   0  0  0  0  0  0  0  0  0  0  0  0
    3.7548    2.1855    0.0000 C   0  0  0  0  0  0  0  0  0  0  0  0
    5.1814    2.6490    0.0000 C   0  0  0  0  0  0  0  0  0  0  0  0
    5.4933    4.1162    0.0000 C   0  0  0  0  0  0  0  0  0  0  0  0
    6.9199    4.5797    0.0000 N   0  0  0  0  0  0  0  0  0  0  0  0
    8.0346    3.5760    0.0000 C   0  0  0  0  0  0  0  0  0  0  0  0
    7.7227    2.1088    0.0000 O   0  0  0  0  0  0  0  0  0  0  0  0
    9.4612    4.0396    0.0000 N   0  0  0  0  0  0  0  0  0  0  0  0
   10.5759    3.0359    0.0000 C   0  0  0  0  0  0  0  0  0  0  0  0
   10.2640    1.5686    0.0000 C   0  0  0  0  0  0  0  0  0  0  0  0
   11.3787    0.5649    0.0000 C   0  0  0  0  0  0  0  0  0  0  0  0
   12.8053    1.0285    0.0000 C   0  0  0  0  0  0  0  0  0  0  0  0
   13.1172    2.4957    0.0000 C   0  0  0  0  0  0  0  0  0  0  0  0
   12.0025    3.4994    0.0000 C   0  0  0  0  0  0  0  0  0  0  0  0
   12.3143    4.9666    0.0000 F   0  0  0  0  0  0  0  0  0  0  0  0
   11.0669   -0.9023    0.0000 C   0  0  0  0  0  0  0  0  0  0  0  0
   10.7550   -2.3695    0.0000 F   0  0  0  0  0  0  0  0  0  0  0  0
    9.5996   -0.5904    0.0000 F   0  0  0  0  0  0  0  0  0  0  0  0
   12.5341   -1.2141    0.0000 F   0  0  0  0  0  0  0  0  0  0  0  0
    4.3786    5.1199    0.0000 C   0  0  0  0  0  0  0  0  0  0  0  0
    2.9520    4.6564    0.0000 C   0  0  0  0  0  0  0  0  0  0  0  0
    0.7500    1.2990    0.0000 C   0  0  0  0  0  0  0  0  0  0  0  0
  1  2  1  0
  2  3  2  0
  3  4  1  0
  4  5  2  0
  5  6  1  0
  6  7  1  0
  7  8  1  0
  8  9  2  0
  9 10  1  0
 10 11  2  0
 11 12  1  0
 12 13  2  0
 13 14  1  0
 14 15  1  0
 15 16  2  0
 15 17  1  0
 17 18  1  0
 18 19  2  0
 19 20  1  0
 20 21  2  0
 21 22  1  0
 22 23  2  0
 23 24  1  0
 20 25  1  0
 25 26  1  0
 25 27  1  0
 25 28  1  0
 13 29  1  0
 29 30  2  0
  9 31  1  0
 31  2  1  0
 31  6  2  0
 30 10  1  0
 23 18  1  0
M  END
>  <Molecule>  (53) 
CHEMBL1998585

>  <Standard Type>  (53) 
Ki

>  <Standard Relation>  (53) 
>

>  <Standard Value>  (53) 
1584.89

>  <Standard Units>  (53) 
nM

>  <pChEMBL Value>  (53) 
nan

>  <Comment>  (53) 
inactive

>  <Compound Key>  (53) 
SID103904277

>  <Assay>  (53) 
CHEMBL1963742

>  <Assay Description>  (53) 
PUBCHEM_BIOASSAY: Navigating the Kinome. (Class of assay: other) Panel member name: JAK3

>  <BAO Format>  (53) 
assay format

>  <Target>  (53) 
CHEMBL2148

>  <Target Pref. Name>  (53) 
Tyrosine-protein kinase JAK3

>  <Target Organism>  (53) 
Homo sapiens

>  <Target Type>  (53) 
SINGLE PROTEIN

>  <Document>  (53) 
CHEMBL1201862

>  <Source>  (53) 
PubChem BioAssays

>  <Max Phase>  (53) 
0

>  <#Ro5 Violations>  (53) 
1

>  <Molecular Weight>  (53) 
447.42

>  <Ligand Efficiency BEI>  (53) 
nan

>  <Ligand Efficiency LE>  (53) 
nan

>  <Ligand Efficiency LLE>  (53) 
nan

>  <Ligand Efficiency SEI>  (53) 
nan

>  <ALogP>  (53) 
5.74

>  <Assay Organism>  (53) 
nan

>  <Assay Tissue ChEMBL ID>  (53) 
nan

>  <Assay Tissue Name>  (53) 
nan

>  <Assay Cell Type>  (53) 
nan

>  <Assay Subcellular Fraction>  (53) 
nan

>  <Organism Tax ID>  (53) 
9606

>  <BAO Format ID>  (53) 
BAO_0000019

>  <Published Type>  (53) 
nan

>  <Published Relation>  (53) 
nan

>  <Published Value>  (53) 
nan

>  <Published Units>  (53) 
nan

>  <Canonical Smiles>  (53) 
Nc1ncnc2scc(c3ccc(NC(=O)Nc4cc(ccc4F)C(F)(F)F)cc3)c12

>  <Data Validity Comment>  (53) 
nan

>  <Document Journal>  (53) 
nan

>  <Document Year>  (53) 
nan

>  <SRC ID>  (53) 
7

>  <UO Units>  (53) 
UO_0000065

>  <Potential Duplicate>  (53) 
False

>  <Class>  (53) 
0

$$$$

     RDKit          2D

 23 26  0  0  0  0  0  0  0  0999 V2000
  -10.5923    4.1480    0.0000 N   0  0  0  0  0  0  0  0  0  0  0  0
   -9.1657    3.6844    0.0000 C   0  0  0  0  0  0  0  0  0  0  0  0
   -7.7391    3.2209    0.0000 C   0  0  0  0  0  0  0  0  0  0  0  0
   -7.4272    1.7537    0.0000 C   0  0  0  0  0  0  0  0  0  0  0  0
   -8.5419    0.7500    0.0000 C   0  0  0  0  0  0  0  0  0  0  0  0
   -8.3851   -0.7418    0.0000 C   0  0  0  0  0  0  0  0  0  0  0  0
   -9.7555   -1.3519    0.0000 C   0  0  0  0  0  0  0  0  0  0  0  0
  -10.7592   -0.2372    0.0000 C   0  0  0  0  0  0  0  0  0  0  0  0
  -10.0092    1.0619    0.0000 C   0  0  0  0  0  0  0  0  0  0  0  0
   -6.0006    1.2902    0.0000 N   0  0  0  0  0  0  0  0  0  0  0  0
   -4.7871    2.1718    0.0000 C   0  0  0  0  0  0  0  0  0  0  0  0
   -3.5736    1.2902    0.0000 C   0  0  0  0  0  0  0  0  0  0  0  0
   -4.0371   -0.1364    0.0000 C   0  0  0  0  0  0  0  0  0  0  0  0
   -5.5371   -0.1364    0.0000 N   0  0  0  0  0  0  0  0  0  0  0  0
   -2.1470    1.7537    0.0000 C   0  0  0  0  0  0  0  0  0  0  0  0
   -1.8351    3.2209    0.0000 N   0  0  0  0  0  0  0  0  0  0  0  0
   -0.4086    3.6844    0.0000 C   0  0  0  0  0  0  0  0  0  0  0  0
    0.7062    2.6807    0.0000 N   0  0  0  0  0  0  0  0  0  0  0  0
    0.3943    1.2135    0.0000 C   0  0  0  0  0  0  0  0  0  0  0  0
    1.2760    0.0000    0.0000 N   0  0  0  0  0  0  0  0  0  0  0  0
    0.3943   -1.2135    0.0000 C   0  0  0  0  0  0  0  0  0  0  0  0
   -1.0323   -0.7500    0.0000 C   0  0  0  0  0  0  0  0  0  0  0  0
   -1.0323    0.7500    0.0000 C   0  0  0  0  0  0  0  0  0  0  0  0
  1  2  3  0
  2  3  1  0
  3  4  1  0
  4  5  1  0
  5  6  1  0
  6  7  1  0
  7  8  1  0
  8  9  1  0
  4 10  1  0
 10 11  1  0
 11 12  2  0
 12 13  1  0
 13 14  2  0
 12 15  1  0
 15 16  2  0
 16 17  1  0
 17 18  2  0
 18 19  1  0
 19 20  1  0
 20 21  1  0
 21 22  2  0
 22 23  1  0
  9  5  1  0
 14 10  1  0
 23 15  1  0
 23 19  2  0
M  END
>  <Molecule>  (54) 
CHEMBL2002099

>  <Standard Type>  (54) 
Ki

>  <Standard Relation>  (54) 
=

>  <Standard Value>  (54) 
100.0

>  <Standard Units>  (54) 
nM

>  <pChEMBL Value>  (54) 
7.0

>  <Comment>  (54) 
active

>  <Compound Key>  (54) 
SID103905276

>  <Assay>  (54) 
CHEMBL1963742

>  <Assay Description>  (54) 
PUBCHEM_BIOASSAY: Navigating the Kinome. (Class of assay: other) Panel member name: JAK3

>  <BAO Format>  (54) 
assay format

>  <Target>  (54) 
CHEMBL2148

>  <Target Pref. Name>  (54) 
Tyrosine-protein kinase JAK3

>  <Target Organism>  (54) 
Homo sapiens

>  <Target Type>  (54) 
SINGLE PROTEIN

>  <Document>  (54) 
CHEMBL1201862

>  <Source>  (54) 
PubChem BioAssays

>  <Max Phase>  (54) 
0

>  <#Ro5 Violations>  (54) 
0

>  <Molecular Weight>  (54) 
306.37

>  <Ligand Efficiency BEI>  (54) 
nan

>  <Ligand Efficiency LE>  (54) 
nan

>  <Ligand Efficiency LLE>  (54) 
nan

>  <Ligand Efficiency SEI>  (54) 
nan

>  <ALogP>  (54) 
3.47

>  <Assay Organism>  (54) 
nan

>  <Assay Tissue ChEMBL ID>  (54) 
nan

>  <Assay Tissue Name>  (54) 
nan

>  <Assay Cell Type>  (54) 
nan

>  <Assay Subcellular Fraction>  (54) 
nan

>  <Organism Tax ID>  (54) 
9606

>  <BAO Format ID>  (54) 
BAO_0000019

>  <Published Type>  (54) 
nan

>  <Published Relation>  (54) 
nan

>  <Published Value>  (54) 
nan

>  <Published Units>  (54) 
nan

>  <Canonical Smiles>  (54) 
N#CCC(C1CCCC1)n2cc(cn2)c3ncnc4[nH]ccc34

>  <Data Validity Comment>  (54) 
nan

>  <Document Journal>  (54) 
nan

>  <Document Year>  (54) 
nan

>  <SRC ID>  (54) 
7

>  <UO Units>  (54) 
UO_0000065

>  <Potential Duplicate>  (54) 
False

>  <Class>  (54) 
1

$$$$

     RDKit          2D

 24 27  0  0  0  0  0  0  0  0999 V2000
   -5.0487    4.2236    0.0000 O   0  0  0  0  0  0  0  0  0  0  0  0
   -5.3605    2.7564    0.0000 C   0  0  0  0  0  0  0  0  0  0  0  0
   -4.2458    1.7527    0.0000 C   0  0  0  0  0  0  0  0  0  0  0  0
   -4.5577    0.2855    0.0000 C   0  0  0  0  0  0  0  0  0  0  0  0
   -5.9843   -0.1781    0.0000 C   0  0  0  0  0  0  0  0  0  0  0  0
   -7.0990    0.8256    0.0000 C   0  0  0  0  0  0  0  0  0  0  0  0
   -6.7871    2.2929    0.0000 C   0  0  0  0  0  0  0  0  0  0  0  0
   -6.2961   -1.6453    0.0000 N   0  0  0  0  0  0  0  0  0  0  0  0
   -5.1814   -2.6490    0.0000 C   0  0  0  0  0  0  0  0  0  0  0  0
   -5.4933   -4.1162    0.0000 C   0  0  0  0  0  0  0  0  0  0  0  0
   -4.3786   -5.1199    0.0000 C   0  0  0  0  0  0  0  0  0  0  0  0
   -4.6904   -6.5871    0.0000 Cl  0  0  0  0  0  0  0  0  0  0  0  0
   -2.9520   -4.6564    0.0000 N   0  0  0  0  0  0  0  0  0  0  0  0
   -2.6401   -3.1891    0.0000 C   0  0  0  0  0  0  0  0  0  0  0  0
   -3.7548   -2.1855    0.0000 N   0  0  0  0  0  0  0  0  0  0  0  0
   -1.2135   -2.7256    0.0000 C   0  0  0  0  0  0  0  0  0  0  0  0
    0.0000   -3.6073    0.0000 C   0  0  0  0  0  0  0  0  0  0  0  0
    1.2135   -2.7256    0.0000 N   0  0  0  0  0  0  0  0  0  0  0  0
    0.7500   -1.2990    0.0000 C   0  0  0  0  0  0  0  0  0  0  0  0
    1.5000    0.0000    0.0000 N   0  0  0  0  0  0  0  0  0  0  0  0
    0.7500    1.2990    0.0000 C   0  0  0  0  0  0  0  0  0  0  0  0
   -0.7500    1.2990    0.0000 C   0  0  0  0  0  0  0  0  0  0  0  0
   -1.5000    0.0000    0.0000 C   0  0  0  0  0  0  0  0  0  0  0  0
   -0.7500   -1.2990    0.0000 C   0  0  0  0  0  0  0  0  0  0  0  0
  1  2  1  0
  2  3  1  0
  3  4  1  0
  4  5  1  0
  5  6  1  0
  6  7  1  0
  5  8  1  0
  8  9  1  0
  9 10  2  0
 10 11  1  0
 11 12  1  0
 11 13  2  0
 13 14  1  0
 14 15  2  0
 14 16  1  0
 16 17  2  0
 17 18  1  0
 18 19  1  0
 19 20  2  0
 20 21  1  0
 21 22  2  0
 22 23  1  0
 23 24  2  0
  7  2  1  0
 15  9  1  0
 24 16  1  0
 24 19  1  0
M  END
>  <Molecule>  (55) 
CHEMBL1991674

>  <Standard Type>  (55) 
Ki

>  <Standard Relation>  (55) 
=

>  <Standard Value>  (55) 
199.53

>  <Standard Units>  (55) 
nM

>  <pChEMBL Value>  (55) 
6.7

>  <Comment>  (55) 
active

>  <Compound Key>  (55) 
SID103904216

>  <Assay>  (55) 
CHEMBL1963742

>  <Assay Description>  (55) 
PUBCHEM_BIOASSAY: Navigating the Kinome. (Class of assay: other) Panel member name: JAK3

>  <BAO Format>  (55) 
assay format

>  <Target>  (55) 
CHEMBL2148

>  <Target Pref. Name>  (55) 
Tyrosine-protein kinase JAK3

>  <Target Organism>  (55) 
Homo sapiens

>  <Target Type>  (55) 
SINGLE PROTEIN

>  <Document>  (55) 
CHEMBL1201862

>  <Source>  (55) 
PubChem BioAssays

>  <Max Phase>  (55) 
0

>  <#Ro5 Violations>  (55) 
0

>  <Molecular Weight>  (55) 
343.82

>  <Ligand Efficiency BEI>  (55) 
nan

>  <Ligand Efficiency LE>  (55) 
nan

>  <Ligand Efficiency LLE>  (55) 
nan

>  <Ligand Efficiency SEI>  (55) 
nan

>  <ALogP>  (55) 
3.39

>  <Assay Organism>  (55) 
nan

>  <Assay Tissue ChEMBL ID>  (55) 
nan

>  <Assay Tissue Name>  (55) 
nan

>  <Assay Cell Type>  (55) 
nan

>  <Assay Subcellular Fraction>  (55) 
nan

>  <Organism Tax ID>  (55) 
9606

>  <BAO Format ID>  (55) 
BAO_0000019

>  <Published Type>  (55) 
nan

>  <Published Relation>  (55) 
nan

>  <Published Value>  (55) 
nan

>  <Published Units>  (55) 
nan

>  <Canonical Smiles>  (55) 
OC1CCC(CC1)Nc2cc(Cl)nc(n2)c3c[nH]c4ncccc34

>  <Data Validity Comment>  (55) 
nan

>  <Document Journal>  (55) 
nan

>  <Document Year>  (55) 
nan

>  <SRC ID>  (55) 
7

>  <UO Units>  (55) 
UO_0000065

>  <Potential Duplicate>  (55) 
False

>  <Class>  (55) 
1

$$$$

     RDKit          2D

 31 33  0  0  0  0  0  0  0  0999 V2000
   12.3583    2.3390    0.0000 C   0  0  0  0  0  0  0  0  0  0  0  0
   11.2436    3.3427    0.0000 S   0  0  0  0  0  0  0  0  0  0  0  0
   10.2399    2.2280    0.0000 O   0  0  0  0  0  0  0  0  0  0  0  0
   12.2473    4.4574    0.0000 O   0  0  0  0  0  0  0  0  0  0  0  0
   10.1288    4.3464    0.0000 N   0  0  0  0  0  0  0  0  0  0  0  0
    8.7023    3.8829    0.0000 C   0  0  0  0  0  0  0  0  0  0  0  0
    8.3904    2.4157    0.0000 C   0  0  0  0  0  0  0  0  0  0  0  0
    6.9638    1.9521    0.0000 C   0  0  0  0  0  0  0  0  0  0  0  0
    7.5739    0.5818    0.0000 O   0  0  0  0  0  0  0  0  0  0  0  0
    7.5739   -0.9182    0.0000 C   0  0  0  0  0  0  0  0  0  0  0  0
    6.9638   -2.2885    0.0000 C   0  0  0  0  0  0  0  0  0  0  0  0
    5.8491   -3.2922    0.0000 C   0  0  0  0  0  0  0  0  0  0  0  0
    4.4225   -3.7557    0.0000 C   0  0  0  0  0  0  0  0  0  0  0  0
    2.9307   -3.5989    0.0000 C   0  0  0  0  0  0  0  0  0  0  0  0
    1.6317   -2.8489    0.0000 O   0  0  0  0  0  0  0  0  0  0  0  0
    0.7500   -1.2990    0.0000 C   0  0  0  0  0  0  0  0  0  0  0  0
    1.5000    0.0000    0.0000 N   0  0  0  0  0  0  0  0  0  0  0  0
    0.7500    1.2990    0.0000 C   0  0  0  0  0  0  0  0  0  0  0  0
    1.6317    2.5126    0.0000 N   0  0  0  0  0  0  0  0  0  0  0  0
    2.9307    3.2626    0.0000 C   0  0  0  0  0  0  0  0  0  0  0  0
    2.4672    4.6891    0.0000 O   0  0  0  0  0  0  0  0  0  0  0  0
    4.4225    3.4194    0.0000 N   0  0  0  0  0  0  0  0  0  0  0  0
    5.8491    2.9558    0.0000 C   0  0  0  0  0  0  0  0  0  0  0  0
    6.1610    4.4231    0.0000 C   0  0  0  0  0  0  0  0  0  0  0  0
    7.5875    4.8866    0.0000 C   0  0  0  0  0  0  0  0  0  0  0  0
    7.8994    6.3538    0.0000 Cl  0  0  0  0  0  0  0  0  0  0  0  0
   -0.7500    1.2990    0.0000 C   0  0  0  0  0  0  0  0  0  0  0  0
   -1.5000    0.0000    0.0000 N   0  0  0  0  0  0  0  0  0  0  0  0
   -0.7500   -1.2990    0.0000 C   0  0  0  0  0  0  0  0  0  0  0  0
   -1.5000   -2.5981    0.0000 C   0  0  0  0  0  0  0  0  0  0  0  0
   -2.2500   -3.8971    0.0000 N   0  0  0  0  0  0  0  0  0  0  0  0
  1  2  1  0
  2  3  2  0
  2  4  2  0
  2  5  1  0
  5  6  1  0
  6  7  2  0
  7  8  1  0
  8  9  1  0
  9 10  1  0
 10 11  1  0
 11 12  1  0
 12 13  1  0
 13 14  1  0
 14 15  1  0
 15 16  1  0
 16 17  1  0
 17 18  2  0
 18 19  1  0
 19 20  1  0
 20 21  2  0
 20 22  1  0
 22 23  1  0
 23 24  1  0
 24 25  2  0
 25 26  1  0
 18 27  1  0
 27 28  2  0
 28 29  1  0
 29 30  1  0
 30 31  3  0
 25  6  1  0
 23  8  2  0
 29 16  2  0
M  END
>  <Molecule>  (56) 
CHEMBL223460

>  <Standard Type>  (56) 
Ki

>  <Standard Relation>  (56) 
>

>  <Standard Value>  (56) 
1584.89

>  <Standard Units>  (56) 
nM

>  <pChEMBL Value>  (56) 
nan

>  <Comment>  (56) 
inactive

>  <Compound Key>  (56) 
SID103905152

>  <Assay>  (56) 
CHEMBL1963742

>  <Assay Description>  (56) 
PUBCHEM_BIOASSAY: Navigating the Kinome. (Class of assay: other) Panel member name: JAK3

>  <BAO Format>  (56) 
assay format

>  <Target>  (56) 
CHEMBL2148

>  <Target Pref. Name>  (56) 
Tyrosine-protein kinase JAK3

>  <Target Organism>  (56) 
Homo sapiens

>  <Target Type>  (56) 
SINGLE PROTEIN

>  <Document>  (56) 
CHEMBL1201862

>  <Source>  (56) 
PubChem BioAssays

>  <Max Phase>  (56) 
0

>  <#Ro5 Violations>  (56) 
0

>  <Molecular Weight>  (56) 
466.91

>  <Ligand Efficiency BEI>  (56) 
nan

>  <Ligand Efficiency LE>  (56) 
nan

>  <Ligand Efficiency LLE>  (56) 
nan

>  <Ligand Efficiency SEI>  (56) 
nan

>  <ALogP>  (56) 
2.96

>  <Assay Organism>  (56) 
nan

>  <Assay Tissue ChEMBL ID>  (56) 
nan

>  <Assay Tissue Name>  (56) 
nan

>  <Assay Cell Type>  (56) 
nan

>  <Assay Subcellular Fraction>  (56) 
nan

>  <Organism Tax ID>  (56) 
9606

>  <BAO Format ID>  (56) 
BAO_0000019

>  <Published Type>  (56) 
nan

>  <Published Relation>  (56) 
nan

>  <Published Value>  (56) 
nan

>  <Published Units>  (56) 
nan

>  <Canonical Smiles>  (56) 
CS(=O)(=O)Nc1cc2OCCCCCOc3nc(NC(=O)Nc2cc1Cl)cnc3C#N

>  <Data Validity Comment>  (56) 
nan

>  <Document Journal>  (56) 
nan

>  <Document Year>  (56) 
nan

>  <SRC ID>  (56) 
7

>  <UO Units>  (56) 
UO_0000065

>  <Potential Duplicate>  (56) 
False

>  <Class>  (56) 
0

$$$$

     RDKit          2D

 25 28  0  0  0  0  0  0  0  0999 V2000
    3.7500   -9.0933    0.0000 Cl  0  0  0  0  0  0  0  0  0  0  0  0
    3.0000   -7.7942    0.0000 C   0  0  0  0  0  0  0  0  0  0  0  0
    1.5000   -7.7942    0.0000 C   0  0  0  0  0  0  0  0  0  0  0  0
    0.7500   -6.4952    0.0000 C   0  0  0  0  0  0  0  0  0  0  0  0
    1.5000   -5.1962    0.0000 C   0  0  0  0  0  0  0  0  0  0  0  0
    3.0000   -5.1962    0.0000 C   0  0  0  0  0  0  0  0  0  0  0  0
    3.7500   -6.4952    0.0000 C   0  0  0  0  0  0  0  0  0  0  0  0
    0.7500   -3.8971    0.0000 C   0  0  0  0  0  0  0  0  0  0  0  0
   -0.7500   -3.8971    0.0000 O   0  0  0  0  0  0  0  0  0  0  0  0
    1.5000   -2.5981    0.0000 N   0  0  0  0  0  0  0  0  0  0  0  0
    0.7500   -1.2990    0.0000 C   0  0  0  0  0  0  0  0  0  0  0  0
    1.5000    0.0000    0.0000 C   0  0  0  0  0  0  0  0  0  0  0  0
    0.7500    1.2990    0.0000 N   0  0  0  0  0  0  0  0  0  0  0  0
   -0.7500    1.2990    0.0000 C   0  0  0  0  0  0  0  0  0  0  0  0
   -1.7537    2.4138    0.0000 N   0  0  0  0  0  0  0  0  0  0  0  0
   -3.1240    1.8037    0.0000 C   0  0  0  0  0  0  0  0  0  0  0  0
   -2.9672    0.3119    0.0000 C   0  0  0  0  0  0  0  0  0  0  0  0
   -4.0819   -0.6918    0.0000 C   0  0  0  0  0  0  0  0  0  0  0  0
   -5.5085   -0.2283    0.0000 C   0  0  0  0  0  0  0  0  0  0  0  0
   -6.6232   -1.2320    0.0000 C   0  0  0  0  0  0  0  0  0  0  0  0
   -6.3114   -2.6992    0.0000 C   0  0  0  0  0  0  0  0  0  0  0  0
   -4.8848   -3.1627    0.0000 C   0  0  0  0  0  0  0  0  0  0  0  0
   -3.7701   -2.1590    0.0000 C   0  0  0  0  0  0  0  0  0  0  0  0
   -1.5000    0.0000    0.0000 C   0  0  0  0  0  0  0  0  0  0  0  0
   -0.7500   -1.2990    0.0000 C   0  0  0  0  0  0  0  0  0  0  0  0
  1  2  1  0
  2  3  2  0
  3  4  1  0
  4  5  2  0
  5  6  1  0
  6  7  2  0
  5  8  1  0
  8  9  2  0
  8 10  1  0
 10 11  1  0
 11 12  2  0
 12 13  1  0
 13 14  2  0
 14 15  1  0
 15 16  1  0
 16 17  2  0
 17 18  1  0
 18 19  2  0
 19 20  1  0
 20 21  2  0
 21 22  1  0
 22 23  2  0
 17 24  1  0
 24 25  2  0
  7  2  1  0
 25 11  1  0
 24 14  1  0
 23 18  1  0
M  END
>  <Molecule>  (57) 
CHEMBL1998829

>  <Standard Type>  (57) 
Ki

>  <Standard Relation>  (57) 
>

>  <Standard Value>  (57) 
1584.89

>  <Standard Units>  (57) 
nM

>  <pChEMBL Value>  (57) 
nan

>  <Comment>  (57) 
inactive

>  <Compound Key>  (57) 
SID103904213

>  <Assay>  (57) 
CHEMBL1963742

>  <Assay Description>  (57) 
PUBCHEM_BIOASSAY: Navigating the Kinome. (Class of assay: other) Panel member name: JAK3

>  <BAO Format>  (57) 
assay format

>  <Target>  (57) 
CHEMBL2148

>  <Target Pref. Name>  (57) 
Tyrosine-protein kinase JAK3

>  <Target Organism>  (57) 
Homo sapiens

>  <Target Type>  (57) 
SINGLE PROTEIN

>  <Document>  (57) 
CHEMBL1201862

>  <Source>  (57) 
PubChem BioAssays

>  <Max Phase>  (57) 
0

>  <#Ro5 Violations>  (57) 
1

>  <Molecular Weight>  (57) 
347.81

>  <Ligand Efficiency BEI>  (57) 
nan

>  <Ligand Efficiency LE>  (57) 
nan

>  <Ligand Efficiency LLE>  (57) 
nan

>  <Ligand Efficiency SEI>  (57) 
nan

>  <ALogP>  (57) 
5.14

>  <Assay Organism>  (57) 
nan

>  <Assay Tissue ChEMBL ID>  (57) 
nan

>  <Assay Tissue Name>  (57) 
nan

>  <Assay Cell Type>  (57) 
nan

>  <Assay Subcellular Fraction>  (57) 
nan

>  <Organism Tax ID>  (57) 
9606

>  <BAO Format ID>  (57) 
BAO_0000019

>  <Published Type>  (57) 
nan

>  <Published Relation>  (57) 
nan

>  <Published Value>  (57) 
nan

>  <Published Units>  (57) 
nan

>  <Canonical Smiles>  (57) 
Clc1ccc(cc1)C(=O)Nc2cnc3[nH]cc(c4ccccc4)c3c2

>  <Data Validity Comment>  (57) 
nan

>  <Document Journal>  (57) 
nan

>  <Document Year>  (57) 
nan

>  <SRC ID>  (57) 
7

>  <UO Units>  (57) 
UO_0000065

>  <Potential Duplicate>  (57) 
False

>  <Class>  (57) 
0

$$$$

     RDKit          2D

 38 42  0  0  0  0  0  0  0  0999 V2000
   11.0517    8.7911    0.0000 C   0  0  0  0  0  0  0  0  0  0  0  0
   10.0480    9.9058    0.0000 O   0  0  0  0  0  0  0  0  0  0  0  0
    8.5808    9.5939    0.0000 C   0  0  0  0  0  0  0  0  0  0  0  0
    8.1173    8.1673    0.0000 C   0  0  0  0  0  0  0  0  0  0  0  0
    6.6501    7.8555    0.0000 C   0  0  0  0  0  0  0  0  0  0  0  0
    5.6464    8.9702    0.0000 C   0  0  0  0  0  0  0  0  0  0  0  0
    4.1791    8.6583    0.0000 N   0  0  0  0  0  0  0  0  0  0  0  0
    3.7156    7.2317    0.0000 C   0  0  0  0  0  0  0  0  0  0  0  0
    4.7193    6.1170    0.0000 O   0  0  0  0  0  0  0  0  0  0  0  0
    2.2484    6.9199    0.0000 N   0  0  0  0  0  0  0  0  0  0  0  0
    1.7849    5.4933    0.0000 C   0  0  0  0  0  0  0  0  0  0  0  0
    0.3177    5.1814    0.0000 C   0  0  0  0  0  0  0  0  0  0  0  0
   -0.1459    3.7548    0.0000 C   0  0  0  0  0  0  0  0  0  0  0  0
    0.8578    2.6401    0.0000 C   0  0  0  0  0  0  0  0  0  0  0  0
    2.3250    2.9520    0.0000 C   0  0  0  0  0  0  0  0  0  0  0  0
    2.7886    4.3786    0.0000 C   0  0  0  0  0  0  0  0  0  0  0  0
    0.3943    1.2135    0.0000 C   0  0  0  0  0  0  0  0  0  0  0  0
    1.2760    0.0000    0.0000 C   0  0  0  0  0  0  0  0  0  0  0  0
    0.3943   -1.2135    0.0000 S   0  0  0  0  0  0  0  0  0  0  0  0
   -1.0323   -0.7500    0.0000 C   0  0  0  0  0  0  0  0  0  0  0  0
   -2.3313   -1.5000    0.0000 C   0  0  0  0  0  0  0  0  0  0  0  0
   -3.6304   -0.7500    0.0000 C   0  0  0  0  0  0  0  0  0  0  0  0
   -3.6304    0.7500    0.0000 N   0  0  0  0  0  0  0  0  0  0  0  0
   -2.3313    1.5000    0.0000 C   0  0  0  0  0  0  0  0  0  0  0  0
   -2.3313    3.0000    0.0000 N   0  0  0  0  0  0  0  0  0  0  0  0
   -1.0323    0.7500    0.0000 C   0  0  0  0  0  0  0  0  0  0  0  0
   -2.3313   -3.0000    0.0000 C   0  0  0  0  0  0  0  0  0  0  0  0
   -1.1178   -3.8817    0.0000 C   0  0  0  0  0  0  0  0  0  0  0  0
   -1.5813   -5.3083    0.0000 N   0  0  0  0  0  0  0  0  0  0  0  0
   -3.0813   -5.3083    0.0000 N   0  0  0  0  0  0  0  0  0  0  0  0
   -3.9630   -6.5218    0.0000 C   0  0  0  0  0  0  0  0  0  0  0  0
   -5.4548   -6.3650    0.0000 C   0  0  0  0  0  0  0  0  0  0  0  0
   -6.0649   -4.9947    0.0000 O   0  0  0  0  0  0  0  0  0  0  0  0
   -6.3365   -7.5785    0.0000 C   0  0  0  0  0  0  0  0  0  0  0  0
   -7.8282   -7.4217    0.0000 O   0  0  0  0  0  0  0  0  0  0  0  0
   -3.5449   -3.8817    0.0000 C   0  0  0  0  0  0  0  0  0  0  0  0
    6.1099   10.3968    0.0000 C   0  0  0  0  0  0  0  0  0  0  0  0
    7.5771   10.7086    0.0000 C   0  0  0  0  0  0  0  0  0  0  0  0
  1  2  1  0
  2  3  1  0
  3  4  2  0
  4  5  1  0
  5  6  2  0
  6  7  1  0
  7  8  1  0
  8  9  2  0
  8 10  1  0
 10 11  1  0
 11 12  2  0
 12 13  1  0
 13 14  2  0
 14 15  1  0
 15 16  2  0
 14 17  1  0
 17 18  2  0
 18 19  1  0
 19 20  1  0
 20 21  2  0
 21 22  1  0
 22 23  2  0
 23 24  1  0
 24 25  1  0
 24 26  2  0
 21 27  1  0
 27 28  1  0
 28 29  2  0
 29 30  1  0
 30 31  1  0
 31 32  1  0
 32 33  1  0
 32 34  1  0
 34 35  1  0
 30 36  1  0
  6 37  1  0
 37 38  2  0
 38  3  1  0
 16 11  1  0
 26 17  1  0
 26 20  1  0
 36 27  2  0
M  END
>  <Molecule>  (58) 
CHEMBL1965170

>  <Standard Type>  (58) 
Ki

>  <Standard Relation>  (58) 
>

>  <Standard Value>  (58) 
5011.87

>  <Standard Units>  (58) 
nM

>  <pChEMBL Value>  (58) 
nan

>  <Comment>  (58) 
inactive

>  <Compound Key>  (58) 
SID103904273

>  <Assay>  (58) 
CHEMBL1963742

>  <Assay Description>  (58) 
PUBCHEM_BIOASSAY: Navigating the Kinome. (Class of assay: other) Panel member name: JAK3

>  <BAO Format>  (58) 
assay format

>  <Target>  (58) 
CHEMBL2148

>  <Target Pref. Name>  (58) 
Tyrosine-protein kinase JAK3

>  <Target Organism>  (58) 
Homo sapiens

>  <Target Type>  (58) 
SINGLE PROTEIN

>  <Document>  (58) 
CHEMBL1201862

>  <Source>  (58) 
PubChem BioAssays

>  <Max Phase>  (58) 
0

>  <#Ro5 Violations>  (58) 
1

>  <Molecular Weight>  (58) 
530.61

>  <Ligand Efficiency BEI>  (58) 
nan

>  <Ligand Efficiency LE>  (58) 
nan

>  <Ligand Efficiency LLE>  (58) 
nan

>  <Ligand Efficiency SEI>  (58) 
nan

>  <ALogP>  (58) 
4.41

>  <Assay Organism>  (58) 
nan

>  <Assay Tissue ChEMBL ID>  (58) 
nan

>  <Assay Tissue Name>  (58) 
nan

>  <Assay Cell Type>  (58) 
nan

>  <Assay Subcellular Fraction>  (58) 
nan

>  <Organism Tax ID>  (58) 
9606

>  <BAO Format ID>  (58) 
BAO_0000019

>  <Published Type>  (58) 
nan

>  <Published Relation>  (58) 
nan

>  <Published Value>  (58) 
nan

>  <Published Units>  (58) 
nan

>  <Canonical Smiles>  (58) 
COc1ccc(NC(=O)Nc2ccc(cc2)c3csc4c(cnc(N)c34)c5cnn(CC(O)CO)c5)cc1

>  <Data Validity Comment>  (58) 
nan

>  <Document Journal>  (58) 
nan

>  <Document Year>  (58) 
nan

>  <SRC ID>  (58) 
7

>  <UO Units>  (58) 
UO_0000065

>  <Potential Duplicate>  (58) 
False

>  <Class>  (58) 
0

$$$$

     RDKit          2D

 24 27  0  0  0  0  0  0  0  0999 V2000
   -7.9018    3.2966    0.0000 O   0  0  0  0  0  0  0  0  0  0  0  0
   -6.7871    2.2929    0.0000 C   0  0  0  0  0  0  0  0  0  0  0  0
   -5.3605    2.7564    0.0000 C   0  0  0  0  0  0  0  0  0  0  0  0
   -4.2458    1.7527    0.0000 C   0  0  0  0  0  0  0  0  0  0  0  0
   -4.5577    0.2855    0.0000 C   0  0  0  0  0  0  0  0  0  0  0  0
   -5.9843   -0.1781    0.0000 C   0  0  0  0  0  0  0  0  0  0  0  0
   -7.0990    0.8256    0.0000 C   0  0  0  0  0  0  0  0  0  0  0  0
   -6.2961   -1.6453    0.0000 N   0  0  0  0  0  0  0  0  0  0  0  0
   -5.1814   -2.6490    0.0000 C   0  0  0  0  0  0  0  0  0  0  0  0
   -5.4933   -4.1162    0.0000 C   0  0  0  0  0  0  0  0  0  0  0  0
   -4.3786   -5.1199    0.0000 C   0  0  0  0  0  0  0  0  0  0  0  0
   -4.6904   -6.5871    0.0000 Cl  0  0  0  0  0  0  0  0  0  0  0  0
   -2.9520   -4.6564    0.0000 N   0  0  0  0  0  0  0  0  0  0  0  0
   -2.6401   -3.1891    0.0000 C   0  0  0  0  0  0  0  0  0  0  0  0
   -3.7548   -2.1855    0.0000 N   0  0  0  0  0  0  0  0  0  0  0  0
   -1.2135   -2.7256    0.0000 C   0  0  0  0  0  0  0  0  0  0  0  0
    0.0000   -3.6073    0.0000 C   0  0  0  0  0  0  0  0  0  0  0  0
    1.2135   -2.7256    0.0000 N   0  0  0  0  0  0  0  0  0  0  0  0
    0.7500   -1.2990    0.0000 C   0  0  0  0  0  0  0  0  0  0  0  0
    1.5000    0.0000    0.0000 N   0  0  0  0  0  0  0  0  0  0  0  0
    0.7500    1.2990    0.0000 C   0  0  0  0  0  0  0  0  0  0  0  0
   -0.7500    1.2990    0.0000 C   0  0  0  0  0  0  0  0  0  0  0  0
   -1.5000    0.0000    0.0000 C   0  0  0  0  0  0  0  0  0  0  0  0
   -0.7500   -1.2990    0.0000 C   0  0  0  0  0  0  0  0  0  0  0  0
  1  2  1  0
  2  3  1  0
  3  4  1  0
  4  5  1  0
  5  6  1  0
  6  7  1  0
  6  8  1  0
  8  9  1  0
  9 10  2  0
 10 11  1  0
 11 12  1  0
 11 13  2  0
 13 14  1  0
 14 15  2  0
 14 16  1  0
 16 17  2  0
 17 18  1  0
 18 19  1  0
 19 20  2  0
 20 21  1  0
 21 22  2  0
 22 23  1  0
 23 24  2  0
  7  2  1  0
 15  9  1  0
 24 16  1  0
 24 19  1  0
M  END
>  <Molecule>  (59) 
CHEMBL1976936

>  <Standard Type>  (59) 
Ki

>  <Standard Relation>  (59) 
=

>  <Standard Value>  (59) 
50.12

>  <Standard Units>  (59) 
nM

>  <pChEMBL Value>  (59) 
7.3

>  <Comment>  (59) 
active

>  <Compound Key>  (59) 
SID103904255

>  <Assay>  (59) 
CHEMBL1963742

>  <Assay Description>  (59) 
PUBCHEM_BIOASSAY: Navigating the Kinome. (Class of assay: other) Panel member name: JAK3

>  <BAO Format>  (59) 
assay format

>  <Target>  (59) 
CHEMBL2148

>  <Target Pref. Name>  (59) 
Tyrosine-protein kinase JAK3

>  <Target Organism>  (59) 
Homo sapiens

>  <Target Type>  (59) 
SINGLE PROTEIN

>  <Document>  (59) 
CHEMBL1201862

>  <Source>  (59) 
PubChem BioAssays

>  <Max Phase>  (59) 
0

>  <#Ro5 Violations>  (59) 
0

>  <Molecular Weight>  (59) 
343.82

>  <Ligand Efficiency BEI>  (59) 
nan

>  <Ligand Efficiency LE>  (59) 
nan

>  <Ligand Efficiency LLE>  (59) 
nan

>  <Ligand Efficiency SEI>  (59) 
nan

>  <ALogP>  (59) 
3.39

>  <Assay Organism>  (59) 
nan

>  <Assay Tissue ChEMBL ID>  (59) 
nan

>  <Assay Tissue Name>  (59) 
nan

>  <Assay Cell Type>  (59) 
nan

>  <Assay Subcellular Fraction>  (59) 
nan

>  <Organism Tax ID>  (59) 
9606

>  <BAO Format ID>  (59) 
BAO_0000019

>  <Published Type>  (59) 
nan

>  <Published Relation>  (59) 
nan

>  <Published Value>  (59) 
nan

>  <Published Units>  (59) 
nan

>  <Canonical Smiles>  (59) 
OC1CCCC(C1)Nc2cc(Cl)nc(n2)c3c[nH]c4ncccc34

>  <Data Validity Comment>  (59) 
nan

>  <Document Journal>  (59) 
nan

>  <Document Year>  (59) 
nan

>  <SRC ID>  (59) 
7

>  <UO Units>  (59) 
UO_0000065

>  <Potential Duplicate>  (59) 
False

>  <Class>  (59) 
1

$$$$

     RDKit          2D

 30 31  0  0  0  0  0  0  0  0999 V2000
    5.2500   -1.2990    0.0000 C   0  0  0  0  0  0  0  0  0  0  0  0
    3.7500   -1.2990    0.0000 C   0  0  0  0  0  0  0  0  0  0  0  0
    3.0000    0.0000    0.0000 O   0  0  0  0  0  0  0  0  0  0  0  0
    1.5000    0.0000    0.0000 C   0  0  0  0  0  0  0  0  0  0  0  0
    0.7500   -1.2990    0.0000 N   0  0  0  0  0  0  0  0  0  0  0  0
   -0.7500   -1.2990    0.0000 C   0  0  0  0  0  0  0  0  0  0  0  0
   -1.5000   -2.5981    0.0000 N   0  0  0  0  0  0  0  0  0  0  0  0
   -3.0000   -2.5981    0.0000 C   0  0  0  0  0  0  0  0  0  0  0  0
   -3.7500   -1.2990    0.0000 O   0  0  0  0  0  0  0  0  0  0  0  0
   -3.7500   -3.8971    0.0000 C   0  0  0  0  0  0  0  0  0  0  0  0
   -5.2500   -3.8971    0.0000 C   0  0  0  0  0  0  0  0  0  0  0  0
   -6.0000   -2.5981    0.0000 C   0  0  0  0  0  0  0  0  0  0  0  0
   -7.5000   -2.5981    0.0000 C   0  0  0  0  0  0  0  0  0  0  0  0
   -8.2500   -1.2990    0.0000 O   0  0  0  0  0  0  0  0  0  0  0  0
   -7.5000    0.0000    0.0000 C   0  0  0  0  0  0  0  0  0  0  0  0
   -8.2500   -3.8971    0.0000 C   0  0  0  0  0  0  0  0  0  0  0  0
   -7.5000   -5.1962    0.0000 C   0  0  0  0  0  0  0  0  0  0  0  0
   -6.0000   -5.1962    0.0000 C   0  0  0  0  0  0  0  0  0  0  0  0
   -5.2500   -6.4952    0.0000 O   0  0  0  0  0  0  0  0  0  0  0  0
   -6.0000   -7.7942    0.0000 C   0  0  0  0  0  0  0  0  0  0  0  0
   -9.7500   -3.8971    0.0000 S   0  0  0  0  0  0  0  0  0  0  0  0
   -9.7500   -2.3971    0.0000 O   0  0  0  0  0  0  0  0  0  0  0  0
   -9.7500   -5.3971    0.0000 O   0  0  0  0  0  0  0  0  0  0  0  0
  -11.2500   -3.8971    0.0000 C   0  0  0  0  0  0  0  0  0  0  0  0
   -1.5000    0.0000    0.0000 C   0  0  0  0  0  0  0  0  0  0  0  0
   -0.7500    1.2990    0.0000 C   0  0  0  0  0  0  0  0  0  0  0  0
   -1.5000    2.5981    0.0000 N   0  0  0  0  0  0  0  0  0  0  0  0
    0.7500    1.2990    0.0000 C   0  0  0  0  0  0  0  0  0  0  0  0
    1.5000    2.5981    0.0000 C   0  0  0  0  0  0  0  0  0  0  0  0
    2.2500    3.8971    0.0000 N   0  0  0  0  0  0  0  0  0  0  0  0
  1  2  1  0
  2  3  1  0
  3  4  1  0
  4  5  2  0
  5  6  1  0
  6  7  1  0
  7  8  1  0
  8  9  2  0
  8 10  1  0
 10 11  1  0
 11 12  2  0
 12 13  1  0
 13 14  1  0
 14 15  1  0
 13 16  2  0
 16 17  1  0
 17 18  2  0
 18 19  1  0
 19 20  1  0
 16 21  1  0
 21 22  2  0
 21 23  2  0
 21 24  1  0
  6 25  2  0
 25 26  1  0
 26 27  1  0
 26 28  2  0
 28 29  1  0
 29 30  3  0
 28  4  1  0
 18 11  1  0
M  END
>  <Molecule>  (60) 
CHEMBL210963

>  <Standard Type>  (60) 
Ki

>  <Standard Relation>  (60) 
>

>  <Standard Value>  (60) 
1584.89

>  <Standard Units>  (60) 
nM

>  <pChEMBL Value>  (60) 
nan

>  <Comment>  (60) 
inactive

>  <Compound Key>  (60) 
SID103905193

>  <Assay>  (60) 
CHEMBL1963742

>  <Assay Description>  (60) 
PUBCHEM_BIOASSAY: Navigating the Kinome. (Class of assay: other) Panel member name: JAK3

>  <BAO Format>  (60) 
assay format

>  <Target>  (60) 
CHEMBL2148

>  <Target Pref. Name>  (60) 
Tyrosine-protein kinase JAK3

>  <Target Organism>  (60) 
Homo sapiens

>  <Target Type>  (60) 
SINGLE PROTEIN

>  <Document>  (60) 
CHEMBL1201862

>  <Source>  (60) 
PubChem BioAssays

>  <Max Phase>  (60) 
0

>  <#Ro5 Violations>  (60) 
0

>  <Molecular Weight>  (60) 
434.47

>  <Ligand Efficiency BEI>  (60) 
nan

>  <Ligand Efficiency LE>  (60) 
nan

>  <Ligand Efficiency LLE>  (60) 
nan

>  <Ligand Efficiency SEI>  (60) 
nan

>  <ALogP>  (60) 
1.54

>  <Assay Organism>  (60) 
nan

>  <Assay Tissue ChEMBL ID>  (60) 
nan

>  <Assay Tissue Name>  (60) 
nan

>  <Assay Cell Type>  (60) 
nan

>  <Assay Subcellular Fraction>  (60) 
nan

>  <Organism Tax ID>  (60) 
9606

>  <BAO Format ID>  (60) 
BAO_0000019

>  <Published Type>  (60) 
nan

>  <Published Relation>  (60) 
nan

>  <Published Value>  (60) 
nan

>  <Published Units>  (60) 
nan

>  <Canonical Smiles>  (60) 
CCOc1nc(NC(=O)Cc2cc(OC)c(cc2OC)S(=O)(=O)C)cc(N)c1C#N

>  <Data Validity Comment>  (60) 
nan

>  <Document Journal>  (60) 
nan

>  <Document Year>  (60) 
nan

>  <SRC ID>  (60) 
7

>  <UO Units>  (60) 
UO_0000065

>  <Potential Duplicate>  (60) 
False

>  <Class>  (60) 
0

$$$$

     RDKit          2D

 30 33  0  0  0  0  0  0  0  0999 V2000
    3.0000    0.0000    0.0000 C   0  0  0  0  0  0  0  0  0  0  0  0
    1.5000    0.0000    0.0000 C   0  0  0  0  0  0  0  0  0  0  0  0
    0.7500   -1.2990    0.0000 N   0  0  0  0  0  0  0  0  0  0  0  0
   -0.7500   -1.2990    0.0000 C   0  0  0  0  0  0  0  0  0  0  0  0
   -1.5000    0.0000    0.0000 C   0  0  0  0  0  0  0  0  0  0  0  0
   -0.7500    1.2990    0.0000 N   0  0  0  0  0  0  0  0  0  0  0  0
   -1.2135    2.7256    0.0000 C   0  0  0  0  0  0  0  0  0  0  0  0
   -2.6401    3.1891    0.0000 C   0  0  0  0  0  0  0  0  0  0  0  0
   -2.9520    4.6564    0.0000 C   0  0  0  0  0  0  0  0  0  0  0  0
   -4.3786    5.1199    0.0000 C   0  0  0  0  0  0  0  0  0  0  0  0
   -5.4933    4.1162    0.0000 N   0  0  0  0  0  0  0  0  0  0  0  0
   -5.1814    2.6490    0.0000 C   0  0  0  0  0  0  0  0  0  0  0  0
   -6.2961    1.6453    0.0000 N   0  0  0  0  0  0  0  0  0  0  0  0
   -7.7227    2.1088    0.0000 C   0  0  0  0  0  0  0  0  0  0  0  0
   -8.8374    1.1051    0.0000 C   0  0  0  0  0  0  0  0  0  0  0  0
   -7.8337   -0.0096    0.0000 C   0  0  0  0  0  0  0  0  0  0  0  0
   -9.8411    2.2198    0.0000 C   0  0  0  0  0  0  0  0  0  0  0  0
   -9.9521    0.1014    0.0000 O   0  0  0  0  0  0  0  0  0  0  0  0
   -3.7548    2.1855    0.0000 N   0  0  0  0  0  0  0  0  0  0  0  0
   -0.0000    3.6073    0.0000 C   0  0  0  0  0  0  0  0  0  0  0  0
    1.2135    2.7256    0.0000 N   0  0  0  0  0  0  0  0  0  0  0  0
    0.7500    1.2990    0.0000 C   0  0  0  0  0  0  0  0  0  0  0  0
   -0.0000    5.1073    0.0000 C   0  0  0  0  0  0  0  0  0  0  0  0
   -1.2990    5.8573    0.0000 C   0  0  0  0  0  0  0  0  0  0  0  0
   -1.2990    7.3573    0.0000 C   0  0  0  0  0  0  0  0  0  0  0  0
   -0.0000    8.1073    0.0000 C   0  0  0  0  0  0  0  0  0  0  0  0
   -0.0000    9.6073    0.0000 F   0  0  0  0  0  0  0  0  0  0  0  0
    1.2990    7.3573    0.0000 C   0  0  0  0  0  0  0  0  0  0  0  0
    1.2990    5.8573    0.0000 C   0  0  0  0  0  0  0  0  0  0  0  0
    2.5981    5.1073    0.0000 F   0  0  0  0  0  0  0  0  0  0  0  0
  1  2  1  0
  2  3  2  0
  3  4  1  0
  4  5  2  0
  5  6  1  0
  6  7  1  0
  7  8  1  0
  8  9  2  0
  9 10  1  0
 10 11  2  0
 11 12  1  0
 12 13  1  0
 13 14  1  0
 14 15  1  0
 15 16  1  0
 15 17  1  0
 15 18  1  0
 12 19  2  0
  7 20  2  0
 20 21  1  0
 21 22  2  0
 20 23  1  0
 23 24  2  0
 24 25  1  0
 25 26  2  0
 26 27  1  0
 26 28  1  0
 28 29  2  0
 29 30  1  0
 22  2  1  0
 22  6  1  0
 19  8  1  0
 29 23  1  0
M  END
>  <Molecule>  (61) 
CHEMBL1996500

>  <Standard Type>  (61) 
Ki

>  <Standard Relation>  (61) 
>

>  <Standard Value>  (61) 
3981.07

>  <Standard Units>  (61) 
nM

>  <pChEMBL Value>  (61) 
nan

>  <Comment>  (61) 
inactive

>  <Compound Key>  (61) 
SID103904762

>  <Assay>  (61) 
CHEMBL1963742

>  <Assay Description>  (61) 
PUBCHEM_BIOASSAY: Navigating the Kinome. (Class of assay: other) Panel member name: JAK3

>  <BAO Format>  (61) 
assay format

>  <Target>  (61) 
CHEMBL2148

>  <Target Pref. Name>  (61) 
Tyrosine-protein kinase JAK3

>  <Target Organism>  (61) 
Homo sapiens

>  <Target Type>  (61) 
SINGLE PROTEIN

>  <Document>  (61) 
CHEMBL1201862

>  <Source>  (61) 
PubChem BioAssays

>  <Max Phase>  (61) 
0

>  <#Ro5 Violations>  (61) 
0

>  <Molecular Weight>  (61) 
410.43

>  <Ligand Efficiency BEI>  (61) 
nan

>  <Ligand Efficiency LE>  (61) 
nan

>  <Ligand Efficiency LLE>  (61) 
nan

>  <Ligand Efficiency SEI>  (61) 
nan

>  <ALogP>  (61) 
3.62

>  <Assay Organism>  (61) 
nan

>  <Assay Tissue ChEMBL ID>  (61) 
nan

>  <Assay Tissue Name>  (61) 
nan

>  <Assay Cell Type>  (61) 
nan

>  <Assay Subcellular Fraction>  (61) 
nan

>  <Organism Tax ID>  (61) 
9606

>  <BAO Format ID>  (61) 
BAO_0000019

>  <Published Type>  (61) 
nan

>  <Published Relation>  (61) 
nan

>  <Published Value>  (61) 
nan

>  <Published Units>  (61) 
nan

>  <Canonical Smiles>  (61) 
Cc1nccn2c(c3ccnc(NCC(C)(C)O)n3)c(nc12)c4ccc(F)cc4F

>  <Data Validity Comment>  (61) 
nan

>  <Document Journal>  (61) 
nan

>  <Document Year>  (61) 
nan

>  <SRC ID>  (61) 
7

>  <UO Units>  (61) 
UO_0000065

>  <Potential Duplicate>  (61) 
False

>  <Class>  (61) 
0

$$$$

     RDKit          2D

 36 40  0  0  0  0  0  0  0  0999 V2000
   -0.4281   -9.1056    0.0000 C   0  0  0  0  0  0  0  0  0  0  0  0
   -1.3098   -7.8921    0.0000 C   0  0  0  0  0  0  0  0  0  0  0  0
   -2.8015   -8.0489    0.0000 O   0  0  0  0  0  0  0  0  0  0  0  0
   -0.6996   -6.5218    0.0000 C   0  0  0  0  0  0  0  0  0  0  0  0
   -1.5813   -5.3083    0.0000 N   0  0  0  0  0  0  0  0  0  0  0  0
   -1.1178   -3.8817    0.0000 C   0  0  0  0  0  0  0  0  0  0  0  0
   -2.3313   -3.0000    0.0000 C   0  0  0  0  0  0  0  0  0  0  0  0
   -3.5449   -3.8817    0.0000 C   0  0  0  0  0  0  0  0  0  0  0  0
   -3.0813   -5.3083    0.0000 N   0  0  0  0  0  0  0  0  0  0  0  0
   -2.3313   -1.5000    0.0000 C   0  0  0  0  0  0  0  0  0  0  0  0
   -3.6304   -0.7500    0.0000 C   0  0  0  0  0  0  0  0  0  0  0  0
   -3.6304    0.7500    0.0000 N   0  0  0  0  0  0  0  0  0  0  0  0
   -2.3313    1.5000    0.0000 C   0  0  0  0  0  0  0  0  0  0  0  0
   -2.3313    3.0000    0.0000 N   0  0  0  0  0  0  0  0  0  0  0  0
   -1.0323    0.7500    0.0000 C   0  0  0  0  0  0  0  0  0  0  0  0
    0.3943    1.2135    0.0000 C   0  0  0  0  0  0  0  0  0  0  0  0
    1.2760    0.0000    0.0000 C   0  0  0  0  0  0  0  0  0  0  0  0
    0.3943   -1.2135    0.0000 S   0  0  0  0  0  0  0  0  0  0  0  0
   -1.0323   -0.7500    0.0000 C   0  0  0  0  0  0  0  0  0  0  0  0
    0.8578    2.6401    0.0000 C   0  0  0  0  0  0  0  0  0  0  0  0
    2.3250    2.9520    0.0000 C   0  0  0  0  0  0  0  0  0  0  0  0
    2.7886    4.3786    0.0000 C   0  0  0  0  0  0  0  0  0  0  0  0
    1.7849    5.4933    0.0000 C   0  0  0  0  0  0  0  0  0  0  0  0
    2.2484    6.9199    0.0000 N   0  0  0  0  0  0  0  0  0  0  0  0
    3.7156    7.2317    0.0000 C   0  0  0  0  0  0  0  0  0  0  0  0
    4.7193    6.1170    0.0000 O   0  0  0  0  0  0  0  0  0  0  0  0
    4.1791    8.6583    0.0000 N   0  0  0  0  0  0  0  0  0  0  0  0
    5.6464    8.9702    0.0000 C   0  0  0  0  0  0  0  0  0  0  0  0
    6.6501    7.8555    0.0000 C   0  0  0  0  0  0  0  0  0  0  0  0
    8.1173    8.1673    0.0000 C   0  0  0  0  0  0  0  0  0  0  0  0
    8.5808    9.5939    0.0000 C   0  0  0  0  0  0  0  0  0  0  0  0
    7.5771   10.7086    0.0000 C   0  0  0  0  0  0  0  0  0  0  0  0
    8.0406   12.1352    0.0000 C   0  0  0  0  0  0  0  0  0  0  0  0
    6.1099   10.3968    0.0000 C   0  0  0  0  0  0  0  0  0  0  0  0
    0.3177    5.1814    0.0000 C   0  0  0  0  0  0  0  0  0  0  0  0
   -0.1459    3.7548    0.0000 C   0  0  0  0  0  0  0  0  0  0  0  0
  1  2  1  0
  2  3  1  0
  2  4  1  0
  4  5  1  0
  5  6  1  0
  6  7  2  0
  7  8  1  0
  8  9  2  0
  7 10  1  0
 10 11  2  0
 11 12  1  0
 12 13  2  0
 13 14  1  0
 13 15  1  0
 15 16  1  0
 16 17  2  0
 17 18  1  0
 18 19  1  0
 16 20  1  0
 20 21  2  0
 21 22  1  0
 22 23  2  0
 23 24  1  0
 24 25  1  0
 25 26  2  0
 25 27  1  0
 27 28  1  0
 28 29  2  0
 29 30  1  0
 30 31  2  0
 31 32  1  0
 32 33  1  0
 32 34  2  0
 23 35  1  0
 35 36  2  0
  9  5  1  0
 19 10  1  0
 19 15  2  0
 36 20  1  0
 34 28  1  0
M  END
>  <Molecule>  (62) 
CHEMBL1989708

>  <Standard Type>  (62) 
Ki

>  <Standard Relation>  (62) 
>

>  <Standard Value>  (62) 
2511.89

>  <Standard Units>  (62) 
nM

>  <pChEMBL Value>  (62) 
nan

>  <Comment>  (62) 
inactive

>  <Compound Key>  (62) 
SID103904326

>  <Assay>  (62) 
CHEMBL1963742

>  <Assay Description>  (62) 
PUBCHEM_BIOASSAY: Navigating the Kinome. (Class of assay: other) Panel member name: JAK3

>  <BAO Format>  (62) 
assay format

>  <Target>  (62) 
CHEMBL2148

>  <Target Pref. Name>  (62) 
Tyrosine-protein kinase JAK3

>  <Target Organism>  (62) 
Homo sapiens

>  <Target Type>  (62) 
SINGLE PROTEIN

>  <Document>  (62) 
CHEMBL1201862

>  <Source>  (62) 
PubChem BioAssays

>  <Max Phase>  (62) 
0

>  <#Ro5 Violations>  (62) 
1

>  <Molecular Weight>  (62) 
498.61

>  <Ligand Efficiency BEI>  (62) 
nan

>  <Ligand Efficiency LE>  (62) 
nan

>  <Ligand Efficiency LLE>  (62) 
nan

>  <Ligand Efficiency SEI>  (62) 
nan

>  <ALogP>  (62) 
5.74

>  <Assay Organism>  (62) 
nan

>  <Assay Tissue ChEMBL ID>  (62) 
nan

>  <Assay Tissue Name>  (62) 
nan

>  <Assay Cell Type>  (62) 
nan

>  <Assay Subcellular Fraction>  (62) 
nan

>  <Organism Tax ID>  (62) 
9606

>  <BAO Format ID>  (62) 
BAO_0000019

>  <Published Type>  (62) 
nan

>  <Published Relation>  (62) 
nan

>  <Published Value>  (62) 
nan

>  <Published Units>  (62) 
nan

>  <Canonical Smiles>  (62) 
CC(O)Cn1cc(cn1)c2cnc(N)c3c(csc23)c4ccc(NC(=O)Nc5cccc(C)c5)cc4

>  <Data Validity Comment>  (62) 
nan

>  <Document Journal>  (62) 
nan

>  <Document Year>  (62) 
nan

>  <SRC ID>  (62) 
7

>  <UO Units>  (62) 
UO_0000065

>  <Potential Duplicate>  (62) 
False

>  <Class>  (62) 
0

$$$$

     RDKit          2D

 21 23  0  0  0  0  0  0  0  0999 V2000
   -2.9520   -4.6564    0.0000 C   0  0  0  0  0  0  0  0  0  0  0  0
   -2.6401   -3.1891    0.0000 C   0  0  0  0  0  0  0  0  0  0  0  0
   -1.2135   -2.7256    0.0000 C   0  0  0  0  0  0  0  0  0  0  0  0
   -0.0000   -3.6073    0.0000 C   0  0  0  0  0  0  0  0  0  0  0  0
    1.2135   -2.7256    0.0000 N   0  0  0  0  0  0  0  0  0  0  0  0
    0.7500   -1.2990    0.0000 C   0  0  0  0  0  0  0  0  0  0  0  0
    1.5000    0.0000    0.0000 N   0  0  0  0  0  0  0  0  0  0  0  0
    0.7500    1.2990    0.0000 C   0  0  0  0  0  0  0  0  0  0  0  0
   -0.7500    1.2990    0.0000 C   0  0  0  0  0  0  0  0  0  0  0  0
   -1.5000    0.0000    0.0000 N   0  0  0  0  0  0  0  0  0  0  0  0
   -0.7500   -1.2990    0.0000 C   0  0  0  0  0  0  0  0  0  0  0  0
   -0.0000   -5.1073    0.0000 C   0  0  0  0  0  0  0  0  0  0  0  0
   -1.2990   -5.8573    0.0000 C   0  0  0  0  0  0  0  0  0  0  0  0
   -1.2990   -7.3573    0.0000 C   0  0  0  0  0  0  0  0  0  0  0  0
   -0.0000   -8.1073    0.0000 C   0  0  0  0  0  0  0  0  0  0  0  0
    1.2990   -7.3573    0.0000 C   0  0  0  0  0  0  0  0  0  0  0  0
    1.2990   -5.8573    0.0000 C   0  0  0  0  0  0  0  0  0  0  0  0
   -0.0000   -9.6073    0.0000 C   0  0  0  0  0  0  0  0  0  0  0  0
    1.5000   -9.6073    0.0000 C   0  0  0  0  0  0  0  0  0  0  0  0
   -1.5000   -9.6073    0.0000 C   0  0  0  0  0  0  0  0  0  0  0  0
   -0.0000  -11.1073    0.0000 O   0  0  0  0  0  0  0  0  0  0  0  0
  1  2  1  0
  2  3  1  0
  3  4  2  0
  4  5  1  0
  5  6  1  0
  6  7  2  0
  7  8  1  0
  8  9  2  0
  9 10  1  0
 10 11  2  0
  4 12  1  0
 12 13  2  0
 13 14  1  0
 14 15  2  0
 15 16  1  0
 16 17  2  0
 15 18  1  0
 18 19  1  0
 18 20  1  0
 18 21  1  0
 11  3  1  0
 11  6  1  0
 17 12  1  0
M  END
>  <Molecule>  (63) 
CHEMBL1976420

>  <Standard Type>  (63) 
Ki

>  <Standard Relation>  (63) 
>

>  <Standard Value>  (63) 
3162.28

>  <Standard Units>  (63) 
nM

>  <pChEMBL Value>  (63) 
nan

>  <Comment>  (63) 
inactive

>  <Compound Key>  (63) 
SID103905182

>  <Assay>  (63) 
CHEMBL1963742

>  <Assay Description>  (63) 
PUBCHEM_BIOASSAY: Navigating the Kinome. (Class of assay: other) Panel member name: JAK3

>  <BAO Format>  (63) 
assay format

>  <Target>  (63) 
CHEMBL2148

>  <Target Pref. Name>  (63) 
Tyrosine-protein kinase JAK3

>  <Target Organism>  (63) 
Homo sapiens

>  <Target Type>  (63) 
SINGLE PROTEIN

>  <Document>  (63) 
CHEMBL1201862

>  <Source>  (63) 
PubChem BioAssays

>  <Max Phase>  (63) 
0

>  <#Ro5 Violations>  (63) 
0

>  <Molecular Weight>  (63) 
281.36

>  <Ligand Efficiency BEI>  (63) 
nan

>  <Ligand Efficiency LE>  (63) 
nan

>  <Ligand Efficiency LLE>  (63) 
nan

>  <Ligand Efficiency SEI>  (63) 
nan

>  <ALogP>  (63) 
3.41

>  <Assay Organism>  (63) 
nan

>  <Assay Tissue ChEMBL ID>  (63) 
nan

>  <Assay Tissue Name>  (63) 
nan

>  <Assay Cell Type>  (63) 
nan

>  <Assay Subcellular Fraction>  (63) 
nan

>  <Organism Tax ID>  (63) 
9606

>  <BAO Format ID>  (63) 
BAO_0000019

>  <Published Type>  (63) 
nan

>  <Published Relation>  (63) 
nan

>  <Published Value>  (63) 
nan

>  <Published Units>  (63) 
nan

>  <Canonical Smiles>  (63) 
CCc1c([nH]c2nccnc12)c3ccc(cc3)C(C)(C)O

>  <Data Validity Comment>  (63) 
nan

>  <Document Journal>  (63) 
nan

>  <Document Year>  (63) 
nan

>  <SRC ID>  (63) 
7

>  <UO Units>  (63) 
UO_0000065

>  <Potential Duplicate>  (63) 
False

>  <Class>  (63) 
0

$$$$

     RDKit          2D

 23 26  0  0  0  0  0  0  0  0999 V2000
    7.5000   -2.5981    0.0000 I   0  0  0  0  0  0  0  0  0  0  0  0
    6.0000   -2.5981    0.0000 C   0  0  0  0  0  0  0  0  0  0  0  0
    5.2500   -3.8971    0.0000 C   0  0  0  0  0  0  0  0  0  0  0  0
    3.7500   -3.8971    0.0000 C   0  0  0  0  0  0  0  0  0  0  0  0
    3.0000   -2.5981    0.0000 C   0  0  0  0  0  0  0  0  0  0  0  0
    1.5000   -2.5981    0.0000 O   0  0  0  0  0  0  0  0  0  0  0  0
    0.7500   -1.2990    0.0000 C   0  0  0  0  0  0  0  0  0  0  0  0
    1.5000    0.0000    0.0000 C   0  0  0  0  0  0  0  0  0  0  0  0
    0.7500    1.2990    0.0000 N   0  0  0  0  0  0  0  0  0  0  0  0
   -0.7500    1.2990    0.0000 C   0  0  0  0  0  0  0  0  0  0  0  0
   -1.5000    0.0000    0.0000 C   0  0  0  0  0  0  0  0  0  0  0  0
   -2.9672   -0.3119    0.0000 S   0  0  0  0  0  0  0  0  0  0  0  0
   -3.1240   -1.8037    0.0000 C   0  0  0  0  0  0  0  0  0  0  0  0
   -1.7537   -2.4138    0.0000 C   0  0  0  0  0  0  0  0  0  0  0  0
   -0.7500   -1.2990    0.0000 C   0  0  0  0  0  0  0  0  0  0  0  0
   -4.4231   -2.5537    0.0000 C   0  0  0  0  0  0  0  0  0  0  0  0
   -4.5798   -4.0454    0.0000 N   0  0  0  0  0  0  0  0  0  0  0  0
   -6.0471   -4.3573    0.0000 C   0  0  0  0  0  0  0  0  0  0  0  0
   -6.6572   -5.7276    0.0000 O   0  0  0  0  0  0  0  0  0  0  0  0
   -6.7971   -3.0583    0.0000 O   0  0  0  0  0  0  0  0  0  0  0  0
   -5.7934   -1.9435    0.0000 N   0  0  0  0  0  0  0  0  0  0  0  0
    3.7500   -1.2990    0.0000 C   0  0  0  0  0  0  0  0  0  0  0  0
    5.2500   -1.2990    0.0000 C   0  0  0  0  0  0  0  0  0  0  0  0
  1  2  1  0
  2  3  2  0
  3  4  1  0
  4  5  2  0
  5  6  1  0
  6  7  1  0
  7  8  2  0
  8  9  1  0
  9 10  2  0
 10 11  1  0
 11 12  1  0
 12 13  1  0
 13 14  2  0
 14 15  1  0
 13 16  1  0
 16 17  2  0
 17 18  1  0
 18 19  2  0
 18 20  1  0
 20 21  1  0
  5 22  1  0
 22 23  2  0
 23  2  1  0
 15  7  1  0
 15 11  2  0
 21 16  1  0
M  END
>  <Molecule>  (64) 
CHEMBL497151

>  <Standard Type>  (64) 
Ki

>  <Standard Relation>  (64) 
>

>  <Standard Value>  (64) 
1584.89

>  <Standard Units>  (64) 
nM

>  <pChEMBL Value>  (64) 
nan

>  <Comment>  (64) 
inactive

>  <Compound Key>  (64) 
SID103905371

>  <Assay>  (64) 
CHEMBL1963742

>  <Assay Description>  (64) 
PUBCHEM_BIOASSAY: Navigating the Kinome. (Class of assay: other) Panel member name: JAK3

>  <BAO Format>  (64) 
assay format

>  <Target>  (64) 
CHEMBL2148

>  <Target Pref. Name>  (64) 
Tyrosine-protein kinase JAK3

>  <Target Organism>  (64) 
Homo sapiens

>  <Target Type>  (64) 
SINGLE PROTEIN

>  <Document>  (64) 
CHEMBL1201862

>  <Source>  (64) 
PubChem BioAssays

>  <Max Phase>  (64) 
0

>  <#Ro5 Violations>  (64) 
0

>  <Molecular Weight>  (64) 
437.22

>  <Ligand Efficiency BEI>  (64) 
nan

>  <Ligand Efficiency LE>  (64) 
nan

>  <Ligand Efficiency LLE>  (64) 
nan

>  <Ligand Efficiency SEI>  (64) 
nan

>  <ALogP>  (64) 
4.04

>  <Assay Organism>  (64) 
nan

>  <Assay Tissue ChEMBL ID>  (64) 
nan

>  <Assay Tissue Name>  (64) 
nan

>  <Assay Cell Type>  (64) 
nan

>  <Assay Subcellular Fraction>  (64) 
nan

>  <Organism Tax ID>  (64) 
9606

>  <BAO Format ID>  (64) 
BAO_0000019

>  <Published Type>  (64) 
nan

>  <Published Relation>  (64) 
nan

>  <Published Value>  (64) 
nan

>  <Published Units>  (64) 
nan

>  <Canonical Smiles>  (64) 
Ic1ccc(Oc2cncc3sc(cc23)C4=NC(=O)ON4)cc1

>  <Data Validity Comment>  (64) 
nan

>  <Document Journal>  (64) 
nan

>  <Document Year>  (64) 
nan

>  <SRC ID>  (64) 
7

>  <UO Units>  (64) 
UO_0000065

>  <Potential Duplicate>  (64) 
False

>  <Class>  (64) 
0

$$$$

     RDKit          2D

 22 25  0  0  0  0  0  0  0  0999 V2000
    3.7500   -1.2990    0.0000 C   0  0  0  0  0  0  0  0  0  0  0  0
    3.0000    0.0000    0.0000 O   0  0  0  0  0  0  0  0  0  0  0  0
    1.5000    0.0000    0.0000 C   0  0  0  0  0  0  0  0  0  0  0  0
    0.7500   -1.2990    0.0000 C   0  0  0  0  0  0  0  0  0  0  0  0
   -0.7500   -1.2990    0.0000 C   0  0  0  0  0  0  0  0  0  0  0  0
   -1.5000    0.0000    0.0000 C   0  0  0  0  0  0  0  0  0  0  0  0
   -0.7500    1.2990    0.0000 C   0  0  0  0  0  0  0  0  0  0  0  0
    0.7500    1.2990    0.0000 C   0  0  0  0  0  0  0  0  0  0  0  0
   -1.7537    2.4138    0.0000 C   0  0  0  0  0  0  0  0  0  0  0  0
   -3.1240    1.8037    0.0000 C   0  0  0  0  0  0  0  0  0  0  0  0
   -2.9672    0.3119    0.0000 N   0  0  0  0  0  0  0  0  0  0  0  0
   -4.0819   -0.6918    0.0000 C   0  0  0  0  0  0  0  0  0  0  0  0
   -1.4418    3.8810    0.0000 C   0  0  0  0  0  0  0  0  0  0  0  0
   -0.0715    4.4911    0.0000 C   0  0  0  0  0  0  0  0  0  0  0  0
   -0.2283    5.9829    0.0000 C   0  0  0  0  0  0  0  0  0  0  0  0
    0.7754    7.0976    0.0000 N   0  0  0  0  0  0  0  0  0  0  0  0
    0.3119    8.5242    0.0000 C   0  0  0  0  0  0  0  0  0  0  0  0
    1.3156    9.6389    0.0000 Br  0  0  0  0  0  0  0  0  0  0  0  0
   -1.1554    8.8360    0.0000 C   0  0  0  0  0  0  0  0  0  0  0  0
   -2.1590    7.7213    0.0000 N   0  0  0  0  0  0  0  0  0  0  0  0
   -1.6955    6.2947    0.0000 C   0  0  0  0  0  0  0  0  0  0  0  0
   -2.4455    4.9957    0.0000 N   0  0  0  0  0  0  0  0  0  0  0  0
  1  2  1  0
  2  3  1  0
  3  4  2  0
  4  5  1  0
  5  6  2  0
  6  7  1  0
  7  8  2  0
  7  9  1  0
  9 10  2  0
 10 11  1  0
 11 12  1  0
  9 13  1  0
 13 14  2  0
 14 15  1  0
 15 16  2  0
 16 17  1  0
 17 18  1  0
 17 19  2  0
 19 20  1  0
 20 21  2  0
 21 22  1  0
  8  3  1  0
 11  6  1  0
 22 13  1  0
 21 15  1  0
M  END
>  <Molecule>  (65) 
CHEMBL2005478

>  <Standard Type>  (65) 
Ki

>  <Standard Relation>  (65) 
>

>  <Standard Value>  (65) 
5011.87

>  <Standard Units>  (65) 
nM

>  <pChEMBL Value>  (65) 
nan

>  <Comment>  (65) 
inactive

>  <Compound Key>  (65) 
SID103904861

>  <Assay>  (65) 
CHEMBL1963742

>  <Assay Description>  (65) 
PUBCHEM_BIOASSAY: Navigating the Kinome. (Class of assay: other) Panel member name: JAK3

>  <BAO Format>  (65) 
assay format

>  <Target>  (65) 
CHEMBL2148

>  <Target Pref. Name>  (65) 
Tyrosine-protein kinase JAK3

>  <Target Organism>  (65) 
Homo sapiens

>  <Target Type>  (65) 
SINGLE PROTEIN

>  <Document>  (65) 
CHEMBL1201862

>  <Source>  (65) 
PubChem BioAssays

>  <Max Phase>  (65) 
0

>  <#Ro5 Violations>  (65) 
0

>  <Molecular Weight>  (65) 
357.21

>  <Ligand Efficiency BEI>  (65) 
nan

>  <Ligand Efficiency LE>  (65) 
nan

>  <Ligand Efficiency LLE>  (65) 
nan

>  <Ligand Efficiency SEI>  (65) 
nan

>  <ALogP>  (65) 
3.89

>  <Assay Organism>  (65) 
nan

>  <Assay Tissue ChEMBL ID>  (65) 
nan

>  <Assay Tissue Name>  (65) 
nan

>  <Assay Cell Type>  (65) 
nan

>  <Assay Subcellular Fraction>  (65) 
nan

>  <Organism Tax ID>  (65) 
9606

>  <BAO Format ID>  (65) 
BAO_0000019

>  <Published Type>  (65) 
nan

>  <Published Relation>  (65) 
nan

>  <Published Value>  (65) 
nan

>  <Published Units>  (65) 
nan

>  <Canonical Smiles>  (65) 
COc1ccc2c(c1)c(cn2C)c3cc4nc(Br)cnc4[nH]3

>  <Data Validity Comment>  (65) 
nan

>  <Document Journal>  (65) 
nan

>  <Document Year>  (65) 
nan

>  <SRC ID>  (65) 
7

>  <UO Units>  (65) 
UO_0000065

>  <Potential Duplicate>  (65) 
False

>  <Class>  (65) 
0

$$$$

     RDKit          2D

 31 34  0  0  0  0  0  0  0  0999 V2000
    0.3207   -8.5658    0.0000 C   0  0  0  0  0  0  0  0  0  0  0  0
    0.4775   -7.0740    0.0000 C   0  0  0  0  0  0  0  0  0  0  0  0
    1.8478   -6.4639    0.0000 N   0  0  0  0  0  0  0  0  0  0  0  0
    2.0046   -4.9721    0.0000 C   0  0  0  0  0  0  0  0  0  0  0  0
    3.3037   -4.2221    0.0000 N   0  0  0  0  0  0  0  0  0  0  0  0
    2.9918   -2.7549    0.0000 C   0  0  0  0  0  0  0  0  0  0  0  0
    3.9955   -1.6402    0.0000 C   0  0  0  0  0  0  0  0  0  0  0  0
    1.5000   -2.5981    0.0000 C   0  0  0  0  0  0  0  0  0  0  0  0
    0.8899   -3.9684    0.0000 S   0  0  0  0  0  0  0  0  0  0  0  0
    0.7500   -1.2990    0.0000 C   0  0  0  0  0  0  0  0  0  0  0  0
    1.5000    0.0000    0.0000 C   0  0  0  0  0  0  0  0  0  0  0  0
    0.7500    1.2990    0.0000 C   0  0  0  0  0  0  0  0  0  0  0  0
   -0.7500    1.2990    0.0000 N   0  0  0  0  0  0  0  0  0  0  0  0
   -1.5000    0.0000    0.0000 C   0  0  0  0  0  0  0  0  0  0  0  0
   -3.0000    0.0000    0.0000 N   0  0  0  0  0  0  0  0  0  0  0  0
   -3.7500    1.2990    0.0000 C   0  0  0  0  0  0  0  0  0  0  0  0
   -3.0000    2.5981    0.0000 C   0  0  0  0  0  0  0  0  0  0  0  0
   -3.7500    3.8971    0.0000 C   0  0  0  0  0  0  0  0  0  0  0  0
   -5.2500    3.8971    0.0000 C   0  0  0  0  0  0  0  0  0  0  0  0
   -6.0000    2.5981    0.0000 C   0  0  0  0  0  0  0  0  0  0  0  0
   -5.2500    1.2990    0.0000 C   0  0  0  0  0  0  0  0  0  0  0  0
   -6.0000    5.1962    0.0000 N   0  0  0  0  0  0  0  0  0  0  0  0
   -5.2500    6.4952    0.0000 C   0  0  0  0  0  0  0  0  0  0  0  0
   -6.0000    7.7942    0.0000 C   0  0  0  0  0  0  0  0  0  0  0  0
   -7.5000    7.7942    0.0000 N   0  0  0  0  0  0  0  0  0  0  0  0
   -8.2500    6.4952    0.0000 C   0  0  0  0  0  0  0  0  0  0  0  0
   -7.5000    5.1962    0.0000 C   0  0  0  0  0  0  0  0  0  0  0  0
   -8.2500    9.0933    0.0000 C   0  0  0  0  0  0  0  0  0  0  0  0
   -9.7500    9.0933    0.0000 O   0  0  0  0  0  0  0  0  0  0  0  0
   -7.5000   10.3923    0.0000 C   0  0  0  0  0  0  0  0  0  0  0  0
   -0.7500   -1.2990    0.0000 N   0  0  0  0  0  0  0  0  0  0  0  0
  1  2  1  0
  2  3  1  0
  3  4  1  0
  4  5  2  0
  5  6  1  0
  6  7  1  0
  6  8  2  0
  8  9  1  0
  8 10  1  0
 10 11  2  0
 11 12  1  0
 12 13  2  0
 13 14  1  0
 14 15  1  0
 15 16  1  0
 16 17  2  0
 17 18  1  0
 18 19  2  0
 19 20  1  0
 20 21  2  0
 19 22  1  0
 22 23  1  0
 23 24  1  0
 24 25  1  0
 25 26  1  0
 26 27  1  0
 25 28  1  0
 28 29  2  0
 28 30  1  0
 14 31  2  0
  9  4  1  0
 31 10  1  0
 21 16  1  0
 27 22  1  0
M  END
>  <Molecule>  (66) 
CHEMBL1983715

>  <Standard Type>  (66) 
Ki

>  <Standard Relation>  (66) 
=

>  <Standard Value>  (66) 
316.23

>  <Standard Units>  (66) 
nM

>  <pChEMBL Value>  (66) 
6.5

>  <Comment>  (66) 
active

>  <Compound Key>  (66) 
SID103904404

>  <Assay>  (66) 
CHEMBL1963742

>  <Assay Description>  (66) 
PUBCHEM_BIOASSAY: Navigating the Kinome. (Class of assay: other) Panel member name: JAK3

>  <BAO Format>  (66) 
assay format

>  <Target>  (66) 
CHEMBL2148

>  <Target Pref. Name>  (66) 
Tyrosine-protein kinase JAK3

>  <Target Organism>  (66) 
Homo sapiens

>  <Target Type>  (66) 
SINGLE PROTEIN

>  <Document>  (66) 
CHEMBL1201862

>  <Source>  (66) 
PubChem BioAssays

>  <Max Phase>  (66) 
0

>  <#Ro5 Violations>  (66) 
0

>  <Molecular Weight>  (66) 
437.57

>  <Ligand Efficiency BEI>  (66) 
nan

>  <Ligand Efficiency LE>  (66) 
nan

>  <Ligand Efficiency LLE>  (66) 
nan

>  <Ligand Efficiency SEI>  (66) 
nan

>  <ALogP>  (66) 
3.75

>  <Assay Organism>  (66) 
nan

>  <Assay Tissue ChEMBL ID>  (66) 
nan

>  <Assay Tissue Name>  (66) 
nan

>  <Assay Cell Type>  (66) 
nan

>  <Assay Subcellular Fraction>  (66) 
nan

>  <Organism Tax ID>  (66) 
9606

>  <BAO Format ID>  (66) 
BAO_0000019

>  <Published Type>  (66) 
nan

>  <Published Relation>  (66) 
nan

>  <Published Value>  (66) 
nan

>  <Published Units>  (66) 
nan

>  <Canonical Smiles>  (66) 
CCNc1nc(C)c(s1)c2ccnc(Nc3ccc(cc3)N4CCN(CC4)C(=O)C)n2

>  <Data Validity Comment>  (66) 
nan

>  <Document Journal>  (66) 
nan

>  <Document Year>  (66) 
nan

>  <SRC ID>  (66) 
7

>  <UO Units>  (66) 
UO_0000065

>  <Potential Duplicate>  (66) 
False

>  <Class>  (66) 
1

$$$$

     RDKit          2D

 27 30  0  0  0  0  0  0  0  0999 V2000
   -6.1149    1.8303    0.0000 C   0  0  0  0  0  0  0  0  0  0  0  0
   -4.6883    2.2939    0.0000 C   0  0  0  0  0  0  0  0  0  0  0  0
   -4.3764    3.7611    0.0000 C   0  0  0  0  0  0  0  0  0  0  0  0
   -3.5736    1.2902    0.0000 C   0  0  0  0  0  0  0  0  0  0  0  0
   -2.1470    1.7537    0.0000 C   0  0  0  0  0  0  0  0  0  0  0  0
   -1.8351    3.2209    0.0000 N   0  0  0  0  0  0  0  0  0  0  0  0
   -0.4086    3.6844    0.0000 C   0  0  0  0  0  0  0  0  0  0  0  0
   -0.0967    5.1517    0.0000 N   0  0  0  0  0  0  0  0  0  0  0  0
    1.3299    5.6152    0.0000 C   0  0  0  0  0  0  0  0  0  0  0  0
    2.4446    4.6115    0.0000 C   0  0  0  0  0  0  0  0  0  0  0  0
    3.8712    5.0750    0.0000 C   0  0  0  0  0  0  0  0  0  0  0  0
    4.1831    6.5422    0.0000 C   0  0  0  0  0  0  0  0  0  0  0  0
    5.6097    7.0058    0.0000 N   0  0  0  0  0  0  0  0  0  0  0  0
    6.7244    6.0021    0.0000 C   0  0  0  0  0  0  0  0  0  0  0  0
    8.1510    6.4656    0.0000 C   0  0  0  0  0  0  0  0  0  0  0  0
    8.4628    7.9328    0.0000 O   0  0  0  0  0  0  0  0  0  0  0  0
    7.3481    8.9365    0.0000 C   0  0  0  0  0  0  0  0  0  0  0  0
    5.9215    8.4730    0.0000 C   0  0  0  0  0  0  0  0  0  0  0  0
    3.0684    7.5459    0.0000 C   0  0  0  0  0  0  0  0  0  0  0  0
    3.3802    9.0132    0.0000 Cl  0  0  0  0  0  0  0  0  0  0  0  0
    1.6418    7.0824    0.0000 C   0  0  0  0  0  0  0  0  0  0  0  0
    0.7062    2.6807    0.0000 N   0  0  0  0  0  0  0  0  0  0  0  0
    0.3943    1.2135    0.0000 C   0  0  0  0  0  0  0  0  0  0  0  0
    1.2760    0.0000    0.0000 N   0  0  0  0  0  0  0  0  0  0  0  0
    0.3943   -1.2135    0.0000 C   0  0  0  0  0  0  0  0  0  0  0  0
   -1.0323   -0.7500    0.0000 C   0  0  0  0  0  0  0  0  0  0  0  0
   -1.0323    0.7500    0.0000 C   0  0  0  0  0  0  0  0  0  0  0  0
  1  2  1  0
  2  3  1  0
  2  4  1  0
  4  5  1  0
  5  6  2  0
  6  7  1  0
  7  8  1  0
  8  9  1  0
  9 10  2  0
 10 11  1  0
 11 12  2  0
 12 13  1  0
 13 14  1  0
 14 15  1  0
 15 16  1  0
 16 17  1  0
 17 18  1  0
 12 19  1  0
 19 20  1  0
 19 21  2  0
  7 22  2  0
 22 23  1  0
 23 24  1  0
 24 25  1  0
 25 26  2  0
 26 27  1  0
 27  5  1  0
 21  9  1  0
 18 13  1  0
 27 23  2  0
M  END
>  <Molecule>  (67) 
CHEMBL1980763

>  <Standard Type>  (67) 
Ki

>  <Standard Relation>  (67) 
=

>  <Standard Value>  (67) 
1995.26

>  <Standard Units>  (67) 
nM

>  <pChEMBL Value>  (67) 
5.7

>  <Comment>  (67) 
active

>  <Compound Key>  (67) 
SID103905010

>  <Assay>  (67) 
CHEMBL1963742

>  <Assay Description>  (67) 
PUBCHEM_BIOASSAY: Navigating the Kinome. (Class of assay: other) Panel member name: JAK3

>  <BAO Format>  (67) 
assay format

>  <Target>  (67) 
CHEMBL2148

>  <Target Pref. Name>  (67) 
Tyrosine-protein kinase JAK3

>  <Target Organism>  (67) 
Homo sapiens

>  <Target Type>  (67) 
SINGLE PROTEIN

>  <Document>  (67) 
CHEMBL1201862

>  <Source>  (67) 
PubChem BioAssays

>  <Max Phase>  (67) 
0

>  <#Ro5 Violations>  (67) 
0

>  <Molecular Weight>  (67) 
385.9

>  <Ligand Efficiency BEI>  (67) 
nan

>  <Ligand Efficiency LE>  (67) 
nan

>  <Ligand Efficiency LLE>  (67) 
nan

>  <Ligand Efficiency SEI>  (67) 
nan

>  <ALogP>  (67) 
4.39

>  <Assay Organism>  (67) 
nan

>  <Assay Tissue ChEMBL ID>  (67) 
nan

>  <Assay Tissue Name>  (67) 
nan

>  <Assay Cell Type>  (67) 
nan

>  <Assay Subcellular Fraction>  (67) 
nan

>  <Organism Tax ID>  (67) 
9606

>  <BAO Format ID>  (67) 
BAO_0000019

>  <Published Type>  (67) 
nan

>  <Published Relation>  (67) 
nan

>  <Published Value>  (67) 
nan

>  <Published Units>  (67) 
nan

>  <Canonical Smiles>  (67) 
CC(C)Cc1nc(Nc2ccc(N3CCOCC3)c(Cl)c2)nc4[nH]ccc14

>  <Data Validity Comment>  (67) 
nan

>  <Document Journal>  (67) 
nan

>  <Document Year>  (67) 
nan

>  <SRC ID>  (67) 
7

>  <UO Units>  (67) 
UO_0000065

>  <Potential Duplicate>  (67) 
False

>  <Class>  (67) 
1

$$$$

     RDKit          2D

 21 23  0  0  0  0  0  0  0  0999 V2000
    3.0000    0.0000    0.0000 F   0  0  0  0  0  0  0  0  0  0  0  0
    1.5000    0.0000    0.0000 C   0  0  0  0  0  0  0  0  0  0  0  0
    0.7500   -1.2990    0.0000 C   0  0  0  0  0  0  0  0  0  0  0  0
   -0.7500   -1.2990    0.0000 C   0  0  0  0  0  0  0  0  0  0  0  0
   -1.5000    0.0000    0.0000 C   0  0  0  0  0  0  0  0  0  0  0  0
   -0.7500    1.2990    0.0000 C   0  0  0  0  0  0  0  0  0  0  0  0
   -1.5000    2.5981    0.0000 C   0  0  0  0  0  0  0  0  0  0  0  0
   -3.0000    2.5981    0.0000 N   0  0  0  0  0  0  0  0  0  0  0  0
   -3.7500    3.8971    0.0000 C   0  0  0  0  0  0  0  0  0  0  0  0
   -3.0000    5.1962    0.0000 O   0  0  0  0  0  0  0  0  0  0  0  0
   -5.2500    3.8971    0.0000 N   0  0  0  0  0  0  0  0  0  0  0  0
   -6.0000    5.1962    0.0000 C   0  0  0  0  0  0  0  0  0  0  0  0
   -5.2500    6.4952    0.0000 C   0  0  0  0  0  0  0  0  0  0  0  0
   -6.0000    7.7942    0.0000 N   0  0  0  0  0  0  0  0  0  0  0  0
   -7.5000    7.7942    0.0000 C   0  0  0  0  0  0  0  0  0  0  0  0
   -8.2500    6.4952    0.0000 C   0  0  0  0  0  0  0  0  0  0  0  0
   -7.5000    5.1962    0.0000 N   0  0  0  0  0  0  0  0  0  0  0  0
   -0.7500    3.8971    0.0000 C   0  0  0  0  0  0  0  0  0  0  0  0
    0.7500    3.8971    0.0000 C   0  0  0  0  0  0  0  0  0  0  0  0
    1.5000    2.5981    0.0000 N   0  0  0  0  0  0  0  0  0  0  0  0
    0.7500    1.2990    0.0000 C   0  0  0  0  0  0  0  0  0  0  0  0
  1  2  1  0
  2  3  2  0
  3  4  1  0
  4  5  2  0
  5  6  1  0
  6  7  2  0
  7  8  1  0
  8  9  1  0
  9 10  2  0
  9 11  1  0
 11 12  1  0
 12 13  2  0
 13 14  1  0
 14 15  2  0
 15 16  1  0
 16 17  2  0
  7 18  1  0
 18 19  2  0
 19 20  1  0
 20 21  2  0
 21  2  1  0
 21  6  1  0
 17 12  1  0
M  END
>  <Molecule>  (68) 
CHEMBL1975647

>  <Standard Type>  (68) 
Ki

>  <Standard Relation>  (68) 
>

>  <Standard Value>  (68) 
1584.89

>  <Standard Units>  (68) 
nM

>  <pChEMBL Value>  (68) 
nan

>  <Comment>  (68) 
inactive

>  <Compound Key>  (68) 
SID103904887

>  <Assay>  (68) 
CHEMBL1963742

>  <Assay Description>  (68) 
PUBCHEM_BIOASSAY: Navigating the Kinome. (Class of assay: other) Panel member name: JAK3

>  <BAO Format>  (68) 
assay format

>  <Target>  (68) 
CHEMBL2148

>  <Target Pref. Name>  (68) 
Tyrosine-protein kinase JAK3

>  <Target Organism>  (68) 
Homo sapiens

>  <Target Type>  (68) 
SINGLE PROTEIN

>  <Document>  (68) 
CHEMBL1201862

>  <Source>  (68) 
PubChem BioAssays

>  <Max Phase>  (68) 
0

>  <#Ro5 Violations>  (68) 
0

>  <Molecular Weight>  (68) 
283.27

>  <Ligand Efficiency BEI>  (68) 
nan

>  <Ligand Efficiency LE>  (68) 
nan

>  <Ligand Efficiency LLE>  (68) 
nan

>  <Ligand Efficiency SEI>  (68) 
nan

>  <ALogP>  (68) 
2.81

>  <Assay Organism>  (68) 
nan

>  <Assay Tissue ChEMBL ID>  (68) 
nan

>  <Assay Tissue Name>  (68) 
nan

>  <Assay Cell Type>  (68) 
nan

>  <Assay Subcellular Fraction>  (68) 
nan

>  <Organism Tax ID>  (68) 
9606

>  <BAO Format ID>  (68) 
BAO_0000019

>  <Published Type>  (68) 
nan

>  <Published Relation>  (68) 
nan

>  <Published Value>  (68) 
nan

>  <Published Units>  (68) 
nan

>  <Canonical Smiles>  (68) 
Fc1cccc2c(NC(=O)Nc3cnccn3)ccnc12

>  <Data Validity Comment>  (68) 
nan

>  <Document Journal>  (68) 
nan

>  <Document Year>  (68) 
nan

>  <SRC ID>  (68) 
7

>  <UO Units>  (68) 
UO_0000065

>  <Potential Duplicate>  (68) 
False

>  <Class>  (68) 
0

$$$$

     RDKit          2D

 24 26  0  0  0  0  0  0  0  0999 V2000
   -9.0165    4.3002    0.0000 C   0  0  0  0  0  0  0  0  0  0  0  0
   -7.9018    3.2966    0.0000 S   0  0  0  0  0  0  0  0  0  0  0  0
   -8.9055    2.1818    0.0000 O   0  0  0  0  0  0  0  0  0  0  0  0
   -6.8981    4.4113    0.0000 O   0  0  0  0  0  0  0  0  0  0  0  0
   -6.7871    2.2929    0.0000 N   0  0  0  0  0  0  0  0  0  0  0  0
   -7.0990    0.8256    0.0000 C   0  0  0  0  0  0  0  0  0  0  0  0
   -5.9843   -0.1781    0.0000 C   0  0  0  0  0  0  0  0  0  0  0  0
   -6.2961   -1.6453    0.0000 N   0  0  0  0  0  0  0  0  0  0  0  0
   -5.1814   -2.6490    0.0000 C   0  0  0  0  0  0  0  0  0  0  0  0
   -3.7548   -2.1855    0.0000 C   0  0  0  0  0  0  0  0  0  0  0  0
   -2.6401   -3.1891    0.0000 C   0  0  0  0  0  0  0  0  0  0  0  0
   -2.9520   -4.6564    0.0000 C   0  0  0  0  0  0  0  0  0  0  0  0
   -4.3786   -5.1199    0.0000 C   0  0  0  0  0  0  0  0  0  0  0  0
   -4.6904   -6.5871    0.0000 Cl  0  0  0  0  0  0  0  0  0  0  0  0
   -5.4933   -4.1162    0.0000 N   0  0  0  0  0  0  0  0  0  0  0  0
   -1.2135   -2.7256    0.0000 C   0  0  0  0  0  0  0  0  0  0  0  0
    0.0000   -3.6073    0.0000 C   0  0  0  0  0  0  0  0  0  0  0  0
    1.2135   -2.7256    0.0000 N   0  0  0  0  0  0  0  0  0  0  0  0
    0.7500   -1.2990    0.0000 C   0  0  0  0  0  0  0  0  0  0  0  0
    1.5000    0.0000    0.0000 N   0  0  0  0  0  0  0  0  0  0  0  0
    0.7500    1.2990    0.0000 C   0  0  0  0  0  0  0  0  0  0  0  0
   -0.7500    1.2990    0.0000 C   0  0  0  0  0  0  0  0  0  0  0  0
   -1.5000    0.0000    0.0000 C   0  0  0  0  0  0  0  0  0  0  0  0
   -0.7500   -1.2990    0.0000 C   0  0  0  0  0  0  0  0  0  0  0  0
  1  2  1  0
  2  3  2  0
  2  4  2  0
  2  5  1  0
  5  6  1  0
  6  7  1  0
  7  8  1  0
  8  9  1  0
  9 10  2  0
 10 11  1  0
 11 12  2  0
 12 13  1  0
 13 14  1  0
 13 15  2  0
 11 16  1  0
 16 17  2  0
 17 18  1  0
 18 19  1  0
 19 20  2  0
 20 21  1  0
 21 22  2  0
 22 23  1  0
 23 24  2  0
 15  9  1  0
 24 16  1  0
 24 19  1  0
M  END
>  <Molecule>  (69) 
CHEMBL2005718

>  <Standard Type>  (69) 
Ki

>  <Standard Relation>  (69) 
=

>  <Standard Value>  (69) 
1258.93

>  <Standard Units>  (69) 
nM

>  <pChEMBL Value>  (69) 
5.9

>  <Comment>  (69) 
active

>  <Compound Key>  (69) 
SID103904222

>  <Assay>  (69) 
CHEMBL1963742

>  <Assay Description>  (69) 
PUBCHEM_BIOASSAY: Navigating the Kinome. (Class of assay: other) Panel member name: JAK3

>  <BAO Format>  (69) 
assay format

>  <Target>  (69) 
CHEMBL2148

>  <Target Pref. Name>  (69) 
Tyrosine-protein kinase JAK3

>  <Target Organism>  (69) 
Homo sapiens

>  <Target Type>  (69) 
SINGLE PROTEIN

>  <Document>  (69) 
CHEMBL1201862

>  <Source>  (69) 
PubChem BioAssays

>  <Max Phase>  (69) 
0

>  <#Ro5 Violations>  (69) 
0

>  <Molecular Weight>  (69) 
365.85

>  <Ligand Efficiency BEI>  (69) 
nan

>  <Ligand Efficiency LE>  (69) 
nan

>  <Ligand Efficiency LLE>  (69) 
nan

>  <Ligand Efficiency SEI>  (69) 
nan

>  <ALogP>  (69) 
2.24

>  <Assay Organism>  (69) 
nan

>  <Assay Tissue ChEMBL ID>  (69) 
nan

>  <Assay Tissue Name>  (69) 
nan

>  <Assay Cell Type>  (69) 
nan

>  <Assay Subcellular Fraction>  (69) 
nan

>  <Organism Tax ID>  (69) 
9606

>  <BAO Format ID>  (69) 
BAO_0000019

>  <Published Type>  (69) 
nan

>  <Published Relation>  (69) 
nan

>  <Published Value>  (69) 
nan

>  <Published Units>  (69) 
nan

>  <Canonical Smiles>  (69) 
CS(=O)(=O)NCCNc1cc(cc(Cl)n1)c2c[nH]c3ncccc23

>  <Data Validity Comment>  (69) 
nan

>  <Document Journal>  (69) 
nan

>  <Document Year>  (69) 
nan

>  <SRC ID>  (69) 
7

>  <UO Units>  (69) 
UO_0000065

>  <Potential Duplicate>  (69) 
False

>  <Class>  (69) 
1

$$$$

     RDKit          2D

 26 28  0  0  0  0  0  0  0  0999 V2000
    3.7500   -1.2990    0.0000 C   0  0  0  0  0  0  0  0  0  0  0  0
    3.0000    0.0000    0.0000 O   0  0  0  0  0  0  0  0  0  0  0  0
    1.5000    0.0000    0.0000 C   0  0  0  0  0  0  0  0  0  0  0  0
    0.7500   -1.2990    0.0000 C   0  0  0  0  0  0  0  0  0  0  0  0
   -0.7500   -1.2990    0.0000 C   0  0  0  0  0  0  0  0  0  0  0  0
   -1.5000    0.0000    0.0000 C   0  0  0  0  0  0  0  0  0  0  0  0
   -0.7500    1.2990    0.0000 C   0  0  0  0  0  0  0  0  0  0  0  0
    0.7500    1.2990    0.0000 C   0  0  0  0  0  0  0  0  0  0  0  0
   -1.5000    2.5981    0.0000 C   0  0  0  0  0  0  0  0  0  0  0  0
   -0.7500    3.8971    0.0000 C   0  0  0  0  0  0  0  0  0  0  0  0
   -3.0000    2.5981    0.0000 N   0  0  0  0  0  0  0  0  0  0  0  0
   -3.7500    3.8971    0.0000 C   0  0  0  0  0  0  0  0  0  0  0  0
   -3.0000    5.1962    0.0000 O   0  0  0  0  0  0  0  0  0  0  0  0
   -5.2500    3.8971    0.0000 C   0  0  0  0  0  0  0  0  0  0  0  0
   -6.0000    5.1962    0.0000 C   0  0  0  0  0  0  0  0  0  0  0  0
   -7.5000    5.1962    0.0000 C   0  0  0  0  0  0  0  0  0  0  0  0
   -8.2500    3.8971    0.0000 C   0  0  0  0  0  0  0  0  0  0  0  0
   -7.5000    2.5981    0.0000 C   0  0  0  0  0  0  0  0  0  0  0  0
   -6.0000    2.5981    0.0000 C   0  0  0  0  0  0  0  0  0  0  0  0
   -9.7500    3.8971    0.0000 C   0  0  0  0  0  0  0  0  0  0  0  0
  -10.5000    5.1962    0.0000 C   0  0  0  0  0  0  0  0  0  0  0  0
  -12.0000    5.1962    0.0000 C   0  0  0  0  0  0  0  0  0  0  0  0
  -12.7500    3.8971    0.0000 N   0  0  0  0  0  0  0  0  0  0  0  0
  -12.0000    2.5981    0.0000 C   0  0  0  0  0  0  0  0  0  0  0  0
  -10.5000    2.5981    0.0000 C   0  0  0  0  0  0  0  0  0  0  0  0
   -9.7500    1.2990    0.0000 C   0  0  0  0  0  0  0  0  0  0  0  0
  1  2  1  0
  2  3  1  0
  3  4  2  0
  4  5  1  0
  5  6  2  0
  6  7  1  0
  7  8  2  0
  7  9  1  0
  9 10  1  0
  9 11  1  0
 11 12  1  0
 12 13  2  0
 12 14  1  0
 14 15  2  0
 15 16  1  0
 16 17  2  0
 17 18  1  0
 18 19  2  0
 17 20  1  0
 20 21  2  0
 21 22  1  0
 22 23  2  0
 23 24  1  0
 24 25  2  0
 25 26  1  0
  8  3  1  0
 19 14  1  0
 25 20  1  0
M  END
>  <Molecule>  (70) 
CHEMBL1970217

>  <Standard Type>  (70) 
Ki

>  <Standard Relation>  (70) 
>

>  <Standard Value>  (70) 
1584.89

>  <Standard Units>  (70) 
nM

>  <pChEMBL Value>  (70) 
nan

>  <Comment>  (70) 
inactive

>  <Compound Key>  (70) 
SID103904557

>  <Assay>  (70) 
CHEMBL1963742

>  <Assay Description>  (70) 
PUBCHEM_BIOASSAY: Navigating the Kinome. (Class of assay: other) Panel member name: JAK3

>  <BAO Format>  (70) 
assay format

>  <Target>  (70) 
CHEMBL2148

>  <Target Pref. Name>  (70) 
Tyrosine-protein kinase JAK3

>  <Target Organism>  (70) 
Homo sapiens

>  <Target Type>  (70) 
SINGLE PROTEIN

>  <Document>  (70) 
CHEMBL1201862

>  <Source>  (70) 
PubChem BioAssays

>  <Max Phase>  (70) 
0

>  <#Ro5 Violations>  (70) 
0

>  <Molecular Weight>  (70) 
346.43

>  <Ligand Efficiency BEI>  (70) 
nan

>  <Ligand Efficiency LE>  (70) 
nan

>  <Ligand Efficiency LLE>  (70) 
nan

>  <Ligand Efficiency SEI>  (70) 
nan

>  <ALogP>  (70) 
4.56

>  <Assay Organism>  (70) 
nan

>  <Assay Tissue ChEMBL ID>  (70) 
nan

>  <Assay Tissue Name>  (70) 
nan

>  <Assay Cell Type>  (70) 
nan

>  <Assay Subcellular Fraction>  (70) 
nan

>  <Organism Tax ID>  (70) 
9606

>  <BAO Format ID>  (70) 
BAO_0000019

>  <Published Type>  (70) 
nan

>  <Published Relation>  (70) 
nan

>  <Published Value>  (70) 
nan

>  <Published Units>  (70) 
nan

>  <Canonical Smiles>  (70) 
COc1cccc(c1)C(C)NC(=O)c2ccc(cc2)c3ccncc3C

>  <Data Validity Comment>  (70) 
nan

>  <Document Journal>  (70) 
nan

>  <Document Year>  (70) 
nan

>  <SRC ID>  (70) 
7

>  <UO Units>  (70) 
UO_0000065

>  <Potential Duplicate>  (70) 
False

>  <Class>  (70) 
0

$$$$

     RDKit          2D

 17 19  0  0  0  0  0  0  0  0999 V2000
   -1.0152   -8.4216    0.0000 Cl  0  0  0  0  0  0  0  0  0  0  0  0
   -1.1273   -6.9258    0.0000 C   0  0  0  0  0  0  0  0  0  0  0  0
    0.1121   -6.0808    0.0000 C   0  0  0  0  0  0  0  0  0  0  0  0
    0.0000   -4.5850    0.0000 C   0  0  0  0  0  0  0  0  0  0  0  0
    1.3515   -3.9342    0.0000 C   0  0  0  0  0  0  0  0  0  0  0  0
    2.5242   -4.8694    0.0000 O   0  0  0  0  0  0  0  0  0  0  0  0
    1.6852   -2.4718    0.0000 N   0  0  0  0  0  0  0  0  0  0  0  0
    0.7500   -1.2990    0.0000 C   0  0  0  0  0  0  0  0  0  0  0  0
    1.5000    0.0000    0.0000 C   0  0  0  0  0  0  0  0  0  0  0  0
    0.7500    1.2990    0.0000 C   0  0  0  0  0  0  0  0  0  0  0  0
   -0.7500    1.2990    0.0000 C   0  0  0  0  0  0  0  0  0  0  0  0
   -1.5000    0.0000    0.0000 C   0  0  0  0  0  0  0  0  0  0  0  0
   -0.7500   -1.2990    0.0000 C   0  0  0  0  0  0  0  0  0  0  0  0
   -1.6852   -2.4718    0.0000 N   0  0  0  0  0  0  0  0  0  0  0  0
   -1.3515   -3.9342    0.0000 C   0  0  0  0  0  0  0  0  0  0  0  0
   -2.5908   -4.7792    0.0000 N   0  0  0  0  0  0  0  0  0  0  0  0
   -2.4787   -6.2750    0.0000 N   0  0  0  0  0  0  0  0  0  0  0  0
  1  2  1  0
  2  3  2  0
  3  4  1  0
  4  5  1  0
  5  6  2  0
  5  7  1  0
  7  8  1  0
  8  9  2  0
  9 10  1  0
 10 11  2  0
 11 12  1  0
 12 13  2  0
 13 14  1  0
 14 15  1  0
 15 16  1  0
 16 17  2  0
 17  2  1  0
 15  4  2  0
 13  8  1  0
M  END
>  <Molecule>  (71) 
CHEMBL1968850

>  <Standard Type>  (71) 
Ki

>  <Standard Relation>  (71) 
>

>  <Standard Value>  (71) 
1584.89

>  <Standard Units>  (71) 
nM

>  <pChEMBL Value>  (71) 
nan

>  <Comment>  (71) 
inactive

>  <Compound Key>  (71) 
SID103905413

>  <Assay>  (71) 
CHEMBL1963742

>  <Assay Description>  (71) 
PUBCHEM_BIOASSAY: Navigating the Kinome. (Class of assay: other) Panel member name: JAK3

>  <BAO Format>  (71) 
assay format

>  <Target>  (71) 
CHEMBL2148

>  <Target Pref. Name>  (71) 
Tyrosine-protein kinase JAK3

>  <Target Organism>  (71) 
Homo sapiens

>  <Target Type>  (71) 
SINGLE PROTEIN

>  <Document>  (71) 
CHEMBL1201862

>  <Source>  (71) 
PubChem BioAssays

>  <Max Phase>  (71) 
0

>  <#Ro5 Violations>  (71) 
0

>  <Molecular Weight>  (71) 
246.66

>  <Ligand Efficiency BEI>  (71) 
nan

>  <Ligand Efficiency LE>  (71) 
nan

>  <Ligand Efficiency LLE>  (71) 
nan

>  <Ligand Efficiency SEI>  (71) 
nan

>  <ALogP>  (71) 
2.44

>  <Assay Organism>  (71) 
nan

>  <Assay Tissue ChEMBL ID>  (71) 
nan

>  <Assay Tissue Name>  (71) 
nan

>  <Assay Cell Type>  (71) 
nan

>  <Assay Subcellular Fraction>  (71) 
nan

>  <Organism Tax ID>  (71) 
9606

>  <BAO Format ID>  (71) 
BAO_0000019

>  <Published Type>  (71) 
nan

>  <Published Relation>  (71) 
nan

>  <Published Value>  (71) 
nan

>  <Published Units>  (71) 
nan

>  <Canonical Smiles>  (71) 
Clc1cc2C(=O)Nc3ccccc3Nc2nn1

>  <Data Validity Comment>  (71) 
nan

>  <Document Journal>  (71) 
nan

>  <Document Year>  (71) 
nan

>  <SRC ID>  (71) 
7

>  <UO Units>  (71) 
UO_0000065

>  <Potential Duplicate>  (71) 
False

>  <Class>  (71) 
0

$$$$

     RDKit          2D

 31 35  0  0  0  0  0  0  0  0999 V2000
    3.0000   -0.0000    0.0000 C   0  0  0  0  0  0  0  0  0  0  0  0
    3.7500   -1.2990    0.0000 C   0  0  0  0  0  0  0  0  0  0  0  0
    5.2500   -1.2990    0.0000 C   0  0  0  0  0  0  0  0  0  0  0  0
    6.0000   -2.5981    0.0000 C   0  0  0  0  0  0  0  0  0  0  0  0
    5.2500   -3.8971    0.0000 C   0  0  0  0  0  0  0  0  0  0  0  0
    3.7500   -3.8971    0.0000 C   0  0  0  0  0  0  0  0  0  0  0  0
    3.0000   -2.5981    0.0000 C   0  0  0  0  0  0  0  0  0  0  0  0
    1.5000   -2.5981    0.0000 N   0  0  0  0  0  0  0  0  0  0  0  0
    0.7500   -1.2990    0.0000 C   0  0  0  0  0  0  0  0  0  0  0  0
    1.5000    0.0000    0.0000 N   0  0  0  0  0  0  0  0  0  0  0  0
    0.7500    1.2990    0.0000 C   0  0  0  0  0  0  0  0  0  0  0  0
   -0.7500    1.2990    0.0000 N   0  0  0  0  0  0  0  0  0  0  0  0
   -1.5000    0.0000    0.0000 C   0  0  0  0  0  0  0  0  0  0  0  0
   -0.7500   -1.2990    0.0000 C   0  0  0  0  0  0  0  0  0  0  0  0
   -1.7537   -2.4138    0.0000 C   0  0  0  0  0  0  0  0  0  0  0  0
   -3.1240   -1.8037    0.0000 N   0  0  0  0  0  0  0  0  0  0  0  0
   -2.9672   -0.3119    0.0000 N   0  0  0  0  0  0  0  0  0  0  0  0
   -4.0819    0.6918    0.0000 C   0  0  0  0  0  0  0  0  0  0  0  0
   -3.7701    2.1590    0.0000 C   0  0  0  0  0  0  0  0  0  0  0  0
   -4.8848    3.1627    0.0000 C   0  0  0  0  0  0  0  0  0  0  0  0
   -6.3114    2.6992    0.0000 C   0  0  0  0  0  0  0  0  0  0  0  0
   -6.6232    1.2320    0.0000 C   0  0  0  0  0  0  0  0  0  0  0  0
   -5.5085    0.2283    0.0000 C   0  0  0  0  0  0  0  0  0  0  0  0
    6.0000   -5.1962    0.0000 C   0  0  0  0  0  0  0  0  0  0  0  0
    7.5000   -5.1962    0.0000 O   0  0  0  0  0  0  0  0  0  0  0  0
    5.2500   -6.4952    0.0000 N   0  0  0  0  0  0  0  0  0  0  0  0
    6.0000   -7.7942    0.0000 C   0  0  0  0  0  0  0  0  0  0  0  0
    7.4918   -7.9510    0.0000 C   0  0  0  0  0  0  0  0  0  0  0  0
    7.8037   -9.4182    0.0000 C   0  0  0  0  0  0  0  0  0  0  0  0
    6.5046  -10.1682    0.0000 O   0  0  0  0  0  0  0  0  0  0  0  0
    5.3899   -9.1645    0.0000 N   0  0  0  0  0  0  0  0  0  0  0  0
  1  2  1  0
  2  3  2  0
  3  4  1  0
  4  5  2  0
  5  6  1  0
  6  7  2  0
  7  8  1  0
  8  9  1  0
  9 10  2  0
 10 11  1  0
 11 12  2  0
 12 13  1  0
 13 14  2  0
 14 15  1  0
 15 16  2  0
 16 17  1  0
 17 18  1  0
 18 19  2  0
 19 20  1  0
 20 21  2  0
 21 22  1  0
 22 23  2  0
  5 24  1  0
 24 25  2  0
 24 26  1  0
 26 27  1  0
 27 28  1  0
 28 29  2  0
 29 30  1  0
 30 31  1  0
  7  2  1  0
 14  9  1  0
 17 13  1  0
 23 18  1  0
 31 27  2  0
M  END
>  <Molecule>  (72) 
CHEMBL259922

>  <Standard Type>  (72) 
Ki

>  <Standard Relation>  (72) 
>

>  <Standard Value>  (72) 
1584.89

>  <Standard Units>  (72) 
nM

>  <pChEMBL Value>  (72) 
nan

>  <Comment>  (72) 
inactive

>  <Compound Key>  (72) 
SID103905455

>  <Assay>  (72) 
CHEMBL1963742

>  <Assay Description>  (72) 
PUBCHEM_BIOASSAY: Navigating the Kinome. (Class of assay: other) Panel member name: JAK3

>  <BAO Format>  (72) 
assay format

>  <Target>  (72) 
CHEMBL2148

>  <Target Pref. Name>  (72) 
Tyrosine-protein kinase JAK3

>  <Target Organism>  (72) 
Homo sapiens

>  <Target Type>  (72) 
SINGLE PROTEIN

>  <Document>  (72) 
CHEMBL1201862

>  <Source>  (72) 
PubChem BioAssays

>  <Max Phase>  (72) 
0

>  <#Ro5 Violations>  (72) 
0

>  <Molecular Weight>  (72) 
411.43

>  <Ligand Efficiency BEI>  (72) 
nan

>  <Ligand Efficiency LE>  (72) 
nan

>  <Ligand Efficiency LLE>  (72) 
nan

>  <Ligand Efficiency SEI>  (72) 
nan

>  <ALogP>  (72) 
4.11

>  <Assay Organism>  (72) 
nan

>  <Assay Tissue ChEMBL ID>  (72) 
nan

>  <Assay Tissue Name>  (72) 
nan

>  <Assay Cell Type>  (72) 
nan

>  <Assay Subcellular Fraction>  (72) 
nan

>  <Organism Tax ID>  (72) 
9606

>  <BAO Format ID>  (72) 
BAO_0000019

>  <Published Type>  (72) 
nan

>  <Published Relation>  (72) 
nan

>  <Published Value>  (72) 
nan

>  <Published Units>  (72) 
nan

>  <Canonical Smiles>  (72) 
Cc1ccc(cc1Nc2ncnc3c2cnn3c4ccccc4)C(=O)Nc5ccon5

>  <Data Validity Comment>  (72) 
nan

>  <Document Journal>  (72) 
nan

>  <Document Year>  (72) 
nan

>  <SRC ID>  (72) 
7

>  <UO Units>  (72) 
UO_0000065

>  <Potential Duplicate>  (72) 
False

>  <Class>  (72) 
0

$$$$

     RDKit          2D

 36 41  0  0  0  0  0  0  0  0999 V2000
  -11.1996   -5.9703    0.0000 C   0  0  0  0  0  0  0  0  0  0  0  0
   -9.7730   -5.5068    0.0000 N   0  0  0  0  0  0  0  0  0  0  0  0
   -9.4612   -4.0396    0.0000 C   0  0  0  0  0  0  0  0  0  0  0  0
   -8.0346   -3.5760    0.0000 C   0  0  0  0  0  0  0  0  0  0  0  0
   -6.9199   -4.5797    0.0000 N   0  0  0  0  0  0  0  0  0  0  0  0
   -7.2317   -6.0469    0.0000 C   0  0  0  0  0  0  0  0  0  0  0  0
   -8.6583   -6.5105    0.0000 C   0  0  0  0  0  0  0  0  0  0  0  0
   -5.4933   -4.1162    0.0000 C   0  0  0  0  0  0  0  0  0  0  0  0
   -4.3786   -5.1199    0.0000 C   0  0  0  0  0  0  0  0  0  0  0  0
   -2.9520   -4.6564    0.0000 C   0  0  0  0  0  0  0  0  0  0  0  0
   -2.6401   -3.1891    0.0000 C   0  0  0  0  0  0  0  0  0  0  0  0
   -3.7548   -2.1855    0.0000 C   0  0  0  0  0  0  0  0  0  0  0  0
   -5.1814   -2.6490    0.0000 C   0  0  0  0  0  0  0  0  0  0  0  0
   -1.2135   -2.7256    0.0000 N   0  0  0  0  0  0  0  0  0  0  0  0
    0.0000   -3.6073    0.0000 C   0  0  0  0  0  0  0  0  0  0  0  0
    1.2135   -2.7256    0.0000 C   0  0  0  0  0  0  0  0  0  0  0  0
    2.6401   -3.1891    0.0000 C   0  0  0  0  0  0  0  0  0  0  0  0
    2.9520   -4.6564    0.0000 C   0  0  0  0  0  0  0  0  0  0  0  0
    4.3786   -5.1199    0.0000 C   0  0  0  0  0  0  0  0  0  0  0  0
    5.4933   -4.1162    0.0000 C   0  0  0  0  0  0  0  0  0  0  0  0
    6.9199   -4.5797    0.0000 O   0  0  0  0  0  0  0  0  0  0  0  0
    7.2317   -6.0469    0.0000 C   0  0  0  0  0  0  0  0  0  0  0  0
    6.1170   -7.0506    0.0000 C   0  0  0  0  0  0  0  0  0  0  0  0
    6.4289   -8.5179    0.0000 C   0  0  0  0  0  0  0  0  0  0  0  0
    7.8555   -8.9814    0.0000 C   0  0  0  0  0  0  0  0  0  0  0  0
    8.9702   -7.9777    0.0000 C   0  0  0  0  0  0  0  0  0  0  0  0
    8.6583   -6.5105    0.0000 C   0  0  0  0  0  0  0  0  0  0  0  0
    5.1814   -2.6490    0.0000 C   0  0  0  0  0  0  0  0  0  0  0  0
    3.7548   -2.1855    0.0000 C   0  0  0  0  0  0  0  0  0  0  0  0
    0.7500   -1.2990    0.0000 C   0  0  0  0  0  0  0  0  0  0  0  0
    1.5000    0.0000    0.0000 C   0  0  0  0  0  0  0  0  0  0  0  0
    3.0000    0.0000    0.0000 N   0  0  0  0  0  0  0  0  0  0  0  0
    0.7500    1.2990    0.0000 N   0  0  0  0  0  0  0  0  0  0  0  0
   -0.7500    1.2990    0.0000 C   0  0  0  0  0  0  0  0  0  0  0  0
   -1.5000    0.0000    0.0000 N   0  0  0  0  0  0  0  0  0  0  0  0
   -0.7500   -1.2990    0.0000 C   0  0  0  0  0  0  0  0  0  0  0  0
  1  2  1  0
  2  3  1  0
  3  4  1  0
  4  5  1  0
  5  6  1  0
  6  7  1  0
  5  8  1  0
  8  9  1  0
  9 10  1  0
 10 11  1  0
 11 12  1  0
 12 13  1  0
 11 14  1  0
 14 15  1  0
 15 16  2  0
 16 17  1  0
 17 18  2  0
 18 19  1  0
 19 20  2  0
 20 21  1  0
 21 22  1  0
 22 23  2  0
 23 24  1  0
 24 25  2  0
 25 26  1  0
 26 27  2  0
 20 28  1  0
 28 29  2  0
 16 30  1  0
 30 31  2  0
 31 32  1  0
 31 33  1  0
 33 34  2  0
 34 35  1  0
 35 36  2  0
  7  2  1  0
 13  8  1  0
 36 14  1  0
 29 17  1  0
 27 22  1  0
 36 30  1  0
M  END
>  <Molecule>  (73) 
CHEMBL1997617

>  <Standard Type>  (73) 
Ki

>  <Standard Relation>  (73) 
>

>  <Standard Value>  (73) 
1584.89

>  <Standard Units>  (73) 
nM

>  <pChEMBL Value>  (73) 
nan

>  <Comment>  (73) 
inactive

>  <Compound Key>  (73) 
SID103904991

>  <Assay>  (73) 
CHEMBL1963742

>  <Assay Description>  (73) 
PUBCHEM_BIOASSAY: Navigating the Kinome. (Class of assay: other) Panel member name: JAK3

>  <BAO Format>  (73) 
assay format

>  <Target>  (73) 
CHEMBL2148

>  <Target Pref. Name>  (73) 
Tyrosine-protein kinase JAK3

>  <Target Organism>  (73) 
Homo sapiens

>  <Target Type>  (73) 
SINGLE PROTEIN

>  <Document>  (73) 
CHEMBL1201862

>  <Source>  (73) 
PubChem BioAssays

>  <Max Phase>  (73) 
0

>  <#Ro5 Violations>  (73) 
1

>  <Molecular Weight>  (73) 
482.63

>  <Ligand Efficiency BEI>  (73) 
nan

>  <Ligand Efficiency LE>  (73) 
nan

>  <Ligand Efficiency LLE>  (73) 
nan

>  <Ligand Efficiency SEI>  (73) 
nan

>  <ALogP>  (73) 
5.2

>  <Assay Organism>  (73) 
nan

>  <Assay Tissue ChEMBL ID>  (73) 
nan

>  <Assay Tissue Name>  (73) 
nan

>  <Assay Cell Type>  (73) 
nan

>  <Assay Subcellular Fraction>  (73) 
nan

>  <Organism Tax ID>  (73) 
9606

>  <BAO Format ID>  (73) 
BAO_0000019

>  <Published Type>  (73) 
nan

>  <Published Relation>  (73) 
nan

>  <Published Value>  (73) 
nan

>  <Published Units>  (73) 
nan

>  <Canonical Smiles>  (73) 
CN1CCN(CC1)C2CCC(CC2)n3cc(c4ccc(Oc5ccccc5)cc4)c6c(N)ncnc36

>  <Data Validity Comment>  (73) 
nan

>  <Document Journal>  (73) 
nan

>  <Document Year>  (73) 
nan

>  <SRC ID>  (73) 
7

>  <UO Units>  (73) 
UO_0000065

>  <Potential Duplicate>  (73) 
False

>  <Class>  (73) 
0

$$$$

     RDKit          2D

 24 26  0  0  0  0  0  0  0  0999 V2000
   -5.1962   -9.6073    0.0000 C   0  0  0  0  0  0  0  0  0  0  0  0
   -3.8971  -10.3573    0.0000 O   0  0  0  0  0  0  0  0  0  0  0  0
   -2.5981   -9.6073    0.0000 C   0  0  0  0  0  0  0  0  0  0  0  0
   -2.5981   -8.1073    0.0000 C   0  0  0  0  0  0  0  0  0  0  0  0
   -1.2990   -7.3573    0.0000 C   0  0  0  0  0  0  0  0  0  0  0  0
   -1.2990   -5.8573    0.0000 C   0  0  0  0  0  0  0  0  0  0  0  0
   -0.0000   -5.1073    0.0000 C   0  0  0  0  0  0  0  0  0  0  0  0
    1.2990   -5.8573    0.0000 C   0  0  0  0  0  0  0  0  0  0  0  0
    2.5981   -6.6073    0.0000 N   0  0  0  0  0  0  0  0  0  0  0  0
   -0.0000   -3.6073    0.0000 C   0  0  0  0  0  0  0  0  0  0  0  0
    1.2135   -2.7256    0.0000 N   0  0  0  0  0  0  0  0  0  0  0  0
    0.7500   -1.2990    0.0000 C   0  0  0  0  0  0  0  0  0  0  0  0
    1.5000    0.0000    0.0000 C   0  0  0  0  0  0  0  0  0  0  0  0
    0.7500    1.2990    0.0000 C   0  0  0  0  0  0  0  0  0  0  0  0
    1.5000    2.5981    0.0000 C   0  0  0  0  0  0  0  0  0  0  0  0
   -0.7500    1.2990    0.0000 C   0  0  0  0  0  0  0  0  0  0  0  0
   -1.5000    0.0000    0.0000 C   0  0  0  0  0  0  0  0  0  0  0  0
   -0.7500   -1.2990    0.0000 C   0  0  0  0  0  0  0  0  0  0  0  0
   -1.2135   -2.7256    0.0000 N   0  0  0  0  0  0  0  0  0  0  0  0
   -0.0000   -8.1073    0.0000 C   0  0  0  0  0  0  0  0  0  0  0  0
    1.2990   -7.3573    0.0000 Br  0  0  0  0  0  0  0  0  0  0  0  0
   -0.0000   -9.6073    0.0000 C   0  0  0  0  0  0  0  0  0  0  0  0
   -1.2990  -10.3573    0.0000 C   0  0  0  0  0  0  0  0  0  0  0  0
   -1.2990  -11.8573    0.0000 O   0  0  0  0  0  0  0  0  0  0  0  0
  1  2  1  0
  2  3  1  0
  3  4  2  0
  4  5  1  0
  5  6  1  0
  6  7  2  3
  7  8  1  0
  8  9  3  0
  7 10  1  0
 10 11  2  0
 11 12  1  0
 12 13  2  0
 13 14  1  0
 14 15  1  0
 14 16  2  0
 16 17  1  0
 17 18  2  0
 18 19  1  0
  5 20  2  0
 20 21  1  0
 20 22  1  0
 22 23  2  0
 23 24  1  0
 23  3  1  0
 19 10  1  0
 18 12  1  0
M  END
>  <Molecule>  (74) 
CHEMBL2000345

>  <Standard Type>  (74) 
Ki

>  <Standard Relation>  (74) 
=

>  <Standard Value>  (74) 
794.33

>  <Standard Units>  (74) 
nM

>  <pChEMBL Value>  (74) 
6.1

>  <Comment>  (74) 
active

>  <Compound Key>  (74) 
SID103905618

>  <Assay>  (74) 
CHEMBL1963742

>  <Assay Description>  (74) 
PUBCHEM_BIOASSAY: Navigating the Kinome. (Class of assay: other) Panel member name: JAK3

>  <BAO Format>  (74) 
assay format

>  <Target>  (74) 
CHEMBL2148

>  <Target Pref. Name>  (74) 
Tyrosine-protein kinase JAK3

>  <Target Organism>  (74) 
Homo sapiens

>  <Target Type>  (74) 
SINGLE PROTEIN

>  <Document>  (74) 
CHEMBL1201862

>  <Source>  (74) 
PubChem BioAssays

>  <Max Phase>  (74) 
0

>  <#Ro5 Violations>  (74) 
0

>  <Molecular Weight>  (74) 
384.23

>  <Ligand Efficiency BEI>  (74) 
nan

>  <Ligand Efficiency LE>  (74) 
nan

>  <Ligand Efficiency LLE>  (74) 
nan

>  <Ligand Efficiency SEI>  (74) 
nan

>  <ALogP>  (74) 
4.41

>  <Assay Organism>  (74) 
nan

>  <Assay Tissue ChEMBL ID>  (74) 
nan

>  <Assay Tissue Name>  (74) 
nan

>  <Assay Cell Type>  (74) 
nan

>  <Assay Subcellular Fraction>  (74) 
nan

>  <Organism Tax ID>  (74) 
9606

>  <BAO Format ID>  (74) 
BAO_0000019

>  <Published Type>  (74) 
nan

>  <Published Relation>  (74) 
nan

>  <Published Value>  (74) 
nan

>  <Published Units>  (74) 
nan

>  <Canonical Smiles>  (74) 
COc1cc(C=C(C#N)c2nc3cc(C)ccc3[nH]2)c(Br)cc1O

>  <Data Validity Comment>  (74) 
nan

>  <Document Journal>  (74) 
nan

>  <Document Year>  (74) 
nan

>  <SRC ID>  (74) 
7

>  <UO Units>  (74) 
UO_0000065

>  <Potential Duplicate>  (74) 
False

>  <Class>  (74) 
1

$$$$

     RDKit          2D

 29 32  0  0  0  0  0  0  0  0999 V2000
    5.7888    1.6004    0.0000 C   0  0  0  0  0  0  0  0  0  0  0  0
    4.6741    2.6041    0.0000 C   0  0  0  0  0  0  0  0  0  0  0  0
    3.2475    2.1406    0.0000 O   0  0  0  0  0  0  0  0  0  0  0  0
    2.1328    3.1443    0.0000 C   0  0  0  0  0  0  0  0  0  0  0  0
    2.4446    4.6115    0.0000 O   0  0  0  0  0  0  0  0  0  0  0  0
    0.7062    2.6807    0.0000 C   0  0  0  0  0  0  0  0  0  0  0  0
    0.3943    1.2135    0.0000 C   0  0  0  0  0  0  0  0  0  0  0  0
    1.2760    0.0000    0.0000 S   0  0  0  0  0  0  0  0  0  0  0  0
    0.3943   -1.2135    0.0000 C   0  0  0  0  0  0  0  0  0  0  0  0
    0.8578   -2.6401    0.0000 C   0  0  0  0  0  0  0  0  0  0  0  0
    2.3250   -2.9520    0.0000 C   0  0  0  0  0  0  0  0  0  0  0  0
    3.4398   -1.9483    0.0000 O   0  0  0  0  0  0  0  0  0  0  0  0
    4.7388   -2.6983    0.0000 C   0  0  0  0  0  0  0  0  0  0  0  0
    4.4269   -4.1655    0.0000 C   0  0  0  0  0  0  0  0  0  0  0  0
    2.9352   -4.3223    0.0000 C   0  0  0  0  0  0  0  0  0  0  0  0
   -1.0323   -0.7500    0.0000 C   0  0  0  0  0  0  0  0  0  0  0  0
   -2.2458   -1.6317    0.0000 O   0  0  0  0  0  0  0  0  0  0  0  0
   -1.0323    0.7500    0.0000 N   0  0  0  0  0  0  0  0  0  0  0  0
   -2.1470    1.7537    0.0000 C   0  0  0  0  0  0  0  0  0  0  0  0
   -1.8351    3.2209    0.0000 C   0  0  0  0  0  0  0  0  0  0  0  0
   -2.9499    4.2246    0.0000 C   0  0  0  0  0  0  0  0  0  0  0  0
   -4.0646    5.2283    0.0000 N   0  0  0  0  0  0  0  0  0  0  0  0
   -0.4086    3.6844    0.0000 C   0  0  0  0  0  0  0  0  0  0  0  0
   -0.0967    5.1517    0.0000 C   0  0  0  0  0  0  0  0  0  0  0  0
   -1.1004    6.2664    0.0000 O   0  0  0  0  0  0  0  0  0  0  0  0
   -0.3504    7.5654    0.0000 C   0  0  0  0  0  0  0  0  0  0  0  0
    1.1168    7.2536    0.0000 C   0  0  0  0  0  0  0  0  0  0  0  0
    1.2736    5.7618    0.0000 C   0  0  0  0  0  0  0  0  0  0  0  0
   -3.5736    1.2902    0.0000 N   0  0  0  0  0  0  0  0  0  0  0  0
  1  2  1  0
  2  3  1  0
  3  4  1  0
  4  5  2  0
  4  6  1  0
  6  7  2  0
  7  8  1  0
  8  9  1  0
  9 10  2  3
 10 11  1  0
 11 12  1  0
 12 13  1  0
 13 14  2  0
 14 15  1  0
  9 16  1  0
 16 17  2  0
 16 18  1  0
 18 19  1  0
 19 20  2  0
 20 21  1  0
 21 22  3  0
 20 23  1  0
 23 24  1  0
 24 25  1  0
 25 26  1  0
 26 27  2  0
 27 28  1  0
 19 29  1  0
 23  6  1  0
 18  7  1  0
 15 11  2  0
 28 24  2  0
M  END
>  <Molecule>  (75) 
CHEMBL1999112

>  <Standard Type>  (75) 
Ki

>  <Standard Relation>  (75) 
>

>  <Standard Value>  (75) 
1584.89

>  <Standard Units>  (75) 
nM

>  <pChEMBL Value>  (75) 
nan

>  <Comment>  (75) 
inactive

>  <Compound Key>  (75) 
SID103905318

>  <Assay>  (75) 
CHEMBL1963742

>  <Assay Description>  (75) 
PUBCHEM_BIOASSAY: Navigating the Kinome. (Class of assay: other) Panel member name: JAK3

>  <BAO Format>  (75) 
assay format

>  <Target>  (75) 
CHEMBL2148

>  <Target Pref. Name>  (75) 
Tyrosine-protein kinase JAK3

>  <Target Organism>  (75) 
Homo sapiens

>  <Target Type>  (75) 
SINGLE PROTEIN

>  <Document>  (75) 
CHEMBL1201862

>  <Source>  (75) 
PubChem BioAssays

>  <Max Phase>  (75) 
0

>  <#Ro5 Violations>  (75) 
0

>  <Molecular Weight>  (75) 
409.42

>  <Ligand Efficiency BEI>  (75) 
nan

>  <Ligand Efficiency LE>  (75) 
nan

>  <Ligand Efficiency LLE>  (75) 
nan

>  <Ligand Efficiency SEI>  (75) 
nan

>  <ALogP>  (75) 
1.09

>  <Assay Organism>  (75) 
nan

>  <Assay Tissue ChEMBL ID>  (75) 
nan

>  <Assay Tissue Name>  (75) 
nan

>  <Assay Cell Type>  (75) 
nan

>  <Assay Subcellular Fraction>  (75) 
nan

>  <Organism Tax ID>  (75) 
9606

>  <BAO Format ID>  (75) 
BAO_0000019

>  <Published Type>  (75) 
nan

>  <Published Relation>  (75) 
nan

>  <Published Value>  (75) 
nan

>  <Published Units>  (75) 
nan

>  <Canonical Smiles>  (75) 
CCOC(=O)C1=C2SC(=Cc3occc3)C(=O)N2C(=C(C#N)C1c4occc4)N

>  <Data Validity Comment>  (75) 
nan

>  <Document Journal>  (75) 
nan

>  <Document Year>  (75) 
nan

>  <SRC ID>  (75) 
7

>  <UO Units>  (75) 
UO_0000065

>  <Potential Duplicate>  (75) 
False

>  <Class>  (75) 
0

$$$$

     RDKit          2D

 30 33  0  0  0  0  0  0  0  0999 V2000
   -8.0346   -3.5760    0.0000 C   0  0  0  0  0  0  0  0  0  0  0  0
   -6.9199   -4.5797    0.0000 O   0  0  0  0  0  0  0  0  0  0  0  0
   -5.4933   -4.1162    0.0000 C   0  0  0  0  0  0  0  0  0  0  0  0
   -5.1814   -2.6490    0.0000 C   0  0  0  0  0  0  0  0  0  0  0  0
   -3.7548   -2.1855    0.0000 C   0  0  0  0  0  0  0  0  0  0  0  0
   -2.6401   -3.1891    0.0000 C   0  0  0  0  0  0  0  0  0  0  0  0
   -2.9520   -4.6564    0.0000 C   0  0  0  0  0  0  0  0  0  0  0  0
   -4.3786   -5.1199    0.0000 C   0  0  0  0  0  0  0  0  0  0  0  0
   -1.2135   -2.7256    0.0000 N   0  0  0  0  0  0  0  0  0  0  0  0
    0.0000   -3.6073    0.0000 C   0  0  0  0  0  0  0  0  0  0  0  0
    1.2135   -2.7256    0.0000 C   0  0  0  0  0  0  0  0  0  0  0  0
    0.7500   -1.2990    0.0000 C   0  0  0  0  0  0  0  0  0  0  0  0
    1.5000    0.0000    0.0000 C   0  0  0  0  0  0  0  0  0  0  0  0
    0.7500    1.2990    0.0000 N   0  0  0  0  0  0  0  0  0  0  0  0
   -0.7500    1.2990    0.0000 C   0  0  0  0  0  0  0  0  0  0  0  0
   -1.5000    2.5981    0.0000 N   0  0  0  0  0  0  0  0  0  0  0  0
   -0.7500    3.8971    0.0000 C   0  0  0  0  0  0  0  0  0  0  0  0
    0.7500    3.8971    0.0000 C   0  0  0  0  0  0  0  0  0  0  0  0
    1.5000    5.1962    0.0000 C   0  0  0  0  0  0  0  0  0  0  0  0
    3.0000    5.1962    0.0000 O   0  0  0  0  0  0  0  0  0  0  0  0
    3.7500    3.8971    0.0000 C   0  0  0  0  0  0  0  0  0  0  0  0
    0.7500    6.4952    0.0000 C   0  0  0  0  0  0  0  0  0  0  0  0
    1.5000    7.7942    0.0000 O   0  0  0  0  0  0  0  0  0  0  0  0
    0.7500    9.0933    0.0000 C   0  0  0  0  0  0  0  0  0  0  0  0
   -0.7500    6.4952    0.0000 C   0  0  0  0  0  0  0  0  0  0  0  0
   -1.5000    7.7942    0.0000 O   0  0  0  0  0  0  0  0  0  0  0  0
   -3.0000    7.7942    0.0000 C   0  0  0  0  0  0  0  0  0  0  0  0
   -1.5000    5.1962    0.0000 C   0  0  0  0  0  0  0  0  0  0  0  0
   -1.5000    0.0000    0.0000 N   0  0  0  0  0  0  0  0  0  0  0  0
   -0.7500   -1.2990    0.0000 C   0  0  0  0  0  0  0  0  0  0  0  0
  1  2  1  0
  2  3  1  0
  3  4  2  0
  4  5  1  0
  5  6  2  0
  6  7  1  0
  7  8  2  0
  6  9  1  0
  9 10  1  0
 10 11  2  0
 11 12  1  0
 12 13  2  0
 13 14  1  0
 14 15  2  0
 15 16  1  0
 16 17  1  0
 17 18  2  0
 18 19  1  0
 19 20  1  0
 20 21  1  0
 19 22  2  0
 22 23  1  0
 23 24  1  0
 22 25  1  0
 25 26  1  0
 26 27  1  0
 25 28  2  0
 15 29  1  0
 29 30  2  0
  8  3  1  0
 30  9  1  0
 30 12  1  0
 28 17  1  0
M  END
>  <Molecule>  (76) 
CHEMBL1975927

>  <Standard Type>  (76) 
Ki

>  <Standard Relation>  (76) 
=

>  <Standard Value>  (76) 
398.11

>  <Standard Units>  (76) 
nM

>  <pChEMBL Value>  (76) 
6.4

>  <Comment>  (76) 
active

>  <Compound Key>  (76) 
SID103904644

>  <Assay>  (76) 
CHEMBL1963742

>  <Assay Description>  (76) 
PUBCHEM_BIOASSAY: Navigating the Kinome. (Class of assay: other) Panel member name: JAK3

>  <BAO Format>  (76) 
assay format

>  <Target>  (76) 
CHEMBL2148

>  <Target Pref. Name>  (76) 
Tyrosine-protein kinase JAK3

>  <Target Organism>  (76) 
Homo sapiens

>  <Target Type>  (76) 
SINGLE PROTEIN

>  <Document>  (76) 
CHEMBL1201862

>  <Source>  (76) 
PubChem BioAssays

>  <Max Phase>  (76) 
0

>  <#Ro5 Violations>  (76) 
0

>  <Molecular Weight>  (76) 
406.44

>  <Ligand Efficiency BEI>  (76) 
nan

>  <Ligand Efficiency LE>  (76) 
nan

>  <Ligand Efficiency LLE>  (76) 
nan

>  <Ligand Efficiency SEI>  (76) 
nan

>  <ALogP>  (76) 
4.2

>  <Assay Organism>  (76) 
nan

>  <Assay Tissue ChEMBL ID>  (76) 
nan

>  <Assay Tissue Name>  (76) 
nan

>  <Assay Cell Type>  (76) 
nan

>  <Assay Subcellular Fraction>  (76) 
nan

>  <Organism Tax ID>  (76) 
9606

>  <BAO Format ID>  (76) 
BAO_0000019

>  <Published Type>  (76) 
nan

>  <Published Relation>  (76) 
nan

>  <Published Value>  (76) 
nan

>  <Published Units>  (76) 
nan

>  <Canonical Smiles>  (76) 
COc1ccc(cc1)n2ccc3cnc(Nc4cc(OC)c(OC)c(OC)c4)nc23

>  <Data Validity Comment>  (76) 
nan

>  <Document Journal>  (76) 
nan

>  <Document Year>  (76) 
nan

>  <SRC ID>  (76) 
7

>  <UO Units>  (76) 
UO_0000065

>  <Potential Duplicate>  (76) 
False

>  <Class>  (76) 
1

$$$$

     RDKit          2D

 27 30  0  0  0  0  0  0  0  0999 V2000
   -4.5577    0.2855    0.0000 C   0  0  0  0  0  0  0  0  0  0  0  0
   -5.9843   -0.1781    0.0000 C   0  0  0  0  0  0  0  0  0  0  0  0
   -6.2961   -1.6453    0.0000 N   0  0  0  0  0  0  0  0  0  0  0  0
   -5.1814   -2.6490    0.0000 C   0  0  0  0  0  0  0  0  0  0  0  0
   -5.4933   -4.1162    0.0000 C   0  0  0  0  0  0  0  0  0  0  0  0
   -4.3786   -5.1199    0.0000 N   0  0  0  0  0  0  0  0  0  0  0  0
   -2.9520   -4.6564    0.0000 C   0  0  0  0  0  0  0  0  0  0  0  0
   -2.6401   -3.1891    0.0000 C   0  0  0  0  0  0  0  0  0  0  0  0
   -3.7548   -2.1855    0.0000 N   0  0  0  0  0  0  0  0  0  0  0  0
   -1.2135   -2.7256    0.0000 N   0  0  0  0  0  0  0  0  0  0  0  0
    0.0000   -3.6073    0.0000 C   0  0  0  0  0  0  0  0  0  0  0  0
    1.2135   -2.7256    0.0000 N   0  0  0  0  0  0  0  0  0  0  0  0
    0.7500   -1.2990    0.0000 C   0  0  0  0  0  0  0  0  0  0  0  0
    1.5000    0.0000    0.0000 C   0  0  0  0  0  0  0  0  0  0  0  0
    0.7500    1.2990    0.0000 C   0  0  0  0  0  0  0  0  0  0  0  0
   -0.7500    1.2990    0.0000 C   0  0  0  0  0  0  0  0  0  0  0  0
   -1.5000    0.0000    0.0000 C   0  0  0  0  0  0  0  0  0  0  0  0
   -0.7500   -1.2990    0.0000 C   0  0  0  0  0  0  0  0  0  0  0  0
   -1.5000    2.5981    0.0000 C   0  0  0  0  0  0  0  0  0  0  0  0
   -2.2500    3.8971    0.0000 N   0  0  0  0  0  0  0  0  0  0  0  0
   -7.0990    0.8256    0.0000 C   0  0  0  0  0  0  0  0  0  0  0  0
   -8.5256    0.3621    0.0000 C   0  0  0  0  0  0  0  0  0  0  0  0
   -9.6403    1.3658    0.0000 C   0  0  0  0  0  0  0  0  0  0  0  0
   -9.3284    2.8330    0.0000 C   0  0  0  0  0  0  0  0  0  0  0  0
   -7.9018    3.2966    0.0000 C   0  0  0  0  0  0  0  0  0  0  0  0
   -6.7871    2.2929    0.0000 C   0  0  0  0  0  0  0  0  0  0  0  0
   -5.3605    2.7564    0.0000 F   0  0  0  0  0  0  0  0  0  0  0  0
  1  2  1  0
  2  3  1  0
  3  4  1  0
  4  5  2  0
  5  6  1  0
  6  7  2  0
  7  8  1  0
  8  9  2  0
  8 10  1  0
 10 11  1  0
 11 12  2  0
 12 13  1  0
 13 14  2  0
 14 15  1  0
 15 16  2  0
 16 17  1  0
 17 18  2  0
 16 19  1  0
 19 20  3  0
  2 21  1  0
 21 22  2  0
 22 23  1  0
 23 24  2  0
 24 25  1  0
 25 26  2  0
 26 27  1  0
  9  4  1  0
 18 10  1  0
 18 13  1  0
 26 21  1  0
M  END
>  <Molecule>  (77) 
CHEMBL1977138

>  <Standard Type>  (77) 
Ki

>  <Standard Relation>  (77) 
=

>  <Standard Value>  (77) 
158.49

>  <Standard Units>  (77) 
nM

>  <pChEMBL Value>  (77) 
6.8

>  <Comment>  (77) 
active

>  <Compound Key>  (77) 
SID103904818

>  <Assay>  (77) 
CHEMBL1963742

>  <Assay Description>  (77) 
PUBCHEM_BIOASSAY: Navigating the Kinome. (Class of assay: other) Panel member name: JAK3

>  <BAO Format>  (77) 
assay format

>  <Target>  (77) 
CHEMBL2148

>  <Target Pref. Name>  (77) 
Tyrosine-protein kinase JAK3

>  <Target Organism>  (77) 
Homo sapiens

>  <Target Type>  (77) 
SINGLE PROTEIN

>  <Document>  (77) 
CHEMBL1201862

>  <Source>  (77) 
PubChem BioAssays

>  <Max Phase>  (77) 
0

>  <#Ro5 Violations>  (77) 
0

>  <Molecular Weight>  (77) 
358.38

>  <Ligand Efficiency BEI>  (77) 
nan

>  <Ligand Efficiency LE>  (77) 
nan

>  <Ligand Efficiency LLE>  (77) 
nan

>  <Ligand Efficiency SEI>  (77) 
nan

>  <ALogP>  (77) 
4.0

>  <Assay Organism>  (77) 
nan

>  <Assay Tissue ChEMBL ID>  (77) 
nan

>  <Assay Tissue Name>  (77) 
nan

>  <Assay Cell Type>  (77) 
nan

>  <Assay Subcellular Fraction>  (77) 
nan

>  <Organism Tax ID>  (77) 
9606

>  <BAO Format ID>  (77) 
BAO_0000019

>  <Published Type>  (77) 
nan

>  <Published Relation>  (77) 
nan

>  <Published Value>  (77) 
nan

>  <Published Units>  (77) 
nan

>  <Canonical Smiles>  (77) 
CC(Nc1cncc(n1)n2cnc3ccc(cc23)C#N)c4ccccc4F

>  <Data Validity Comment>  (77) 
nan

>  <Document Journal>  (77) 
nan

>  <Document Year>  (77) 
nan

>  <SRC ID>  (77) 
7

>  <UO Units>  (77) 
UO_0000065

>  <Potential Duplicate>  (77) 
False

>  <Class>  (77) 
1

$$$$

     RDKit          2D

 35 39  0  0  0  0  0  0  0  0999 V2000
    0.3207   -8.5658    0.0000 C   0  0  0  0  0  0  0  0  0  0  0  0
    0.4775   -7.0740    0.0000 C   0  0  0  0  0  0  0  0  0  0  0  0
    1.8478   -6.4639    0.0000 C   0  0  0  0  0  0  0  0  0  0  0  0
    2.0046   -4.9721    0.0000 N   0  0  0  0  0  0  0  0  0  0  0  0
    3.3037   -4.2221    0.0000 C   0  0  0  0  0  0  0  0  0  0  0  0
    2.9918   -2.7549    0.0000 N   0  0  0  0  0  0  0  0  0  0  0  0
    1.5000   -2.5981    0.0000 C   0  0  0  0  0  0  0  0  0  0  0  0
    0.7500   -1.2990    0.0000 C   0  0  0  0  0  0  0  0  0  0  0  0
    1.5000    0.0000    0.0000 C   0  0  0  0  0  0  0  0  0  0  0  0
    0.7500    1.2990    0.0000 C   0  0  0  0  0  0  0  0  0  0  0  0
   -0.7500    1.2990    0.0000 C   0  0  0  0  0  0  0  0  0  0  0  0
   -1.5000    2.5981    0.0000 Cl  0  0  0  0  0  0  0  0  0  0  0  0
   -1.5000    0.0000    0.0000 C   0  0  0  0  0  0  0  0  0  0  0  0
   -3.0000    0.0000    0.0000 Cl  0  0  0  0  0  0  0  0  0  0  0  0
   -0.7500   -1.2990    0.0000 C   0  0  0  0  0  0  0  0  0  0  0  0
    0.8899   -3.9684    0.0000 C   0  0  0  0  0  0  0  0  0  0  0  0
   -0.5773   -4.2803    0.0000 C   0  0  0  0  0  0  0  0  0  0  0  0
   -1.5810   -3.1655    0.0000 C   0  0  0  0  0  0  0  0  0  0  0  0
   -3.0482   -3.4774    0.0000 C   0  0  0  0  0  0  0  0  0  0  0  0
   -3.5118   -4.9040    0.0000 N   0  0  0  0  0  0  0  0  0  0  0  0
   -2.5081   -6.0187    0.0000 C   0  0  0  0  0  0  0  0  0  0  0  0
   -2.9716   -7.4453    0.0000 N   0  0  0  0  0  0  0  0  0  0  0  0
   -4.4388   -7.7572    0.0000 C   0  0  0  0  0  0  0  0  0  0  0  0
   -5.4425   -6.6424    0.0000 C   0  0  0  0  0  0  0  0  0  0  0  0
   -6.9097   -6.9543    0.0000 C   0  0  0  0  0  0  0  0  0  0  0  0
   -7.3733   -8.3809    0.0000 C   0  0  0  0  0  0  0  0  0  0  0  0
   -6.3696   -9.4956    0.0000 C   0  0  0  0  0  0  0  0  0  0  0  0
   -4.9023   -9.1838    0.0000 C   0  0  0  0  0  0  0  0  0  0  0  0
   -1.0409   -5.7068    0.0000 N   0  0  0  0  0  0  0  0  0  0  0  0
    4.6740   -4.8322    0.0000 C   0  0  0  0  0  0  0  0  0  0  0  0
    4.8308   -6.3240    0.0000 C   0  0  0  0  0  0  0  0  0  0  0  0
    6.2011   -6.9341    0.0000 C   0  0  0  0  0  0  0  0  0  0  0  0
    7.4146   -6.0524    0.0000 N   0  0  0  0  0  0  0  0  0  0  0  0
    7.2578   -4.5606    0.0000 C   0  0  0  0  0  0  0  0  0  0  0  0
    5.8875   -3.9505    0.0000 C   0  0  0  0  0  0  0  0  0  0  0  0
  1  2  1  0
  2  3  1  0
  3  4  1  0
  4  5  1  0
  5  6  2  0
  6  7  1  0
  7  8  1  0
  8  9  2  0
  9 10  1  0
 10 11  2  0
 11 12  1  0
 11 13  1  0
 13 14  1  0
 13 15  2  0
  7 16  2  0
 16 17  1  0
 17 18  2  0
 18 19  1  0
 19 20  2  0
 20 21  1  0
 21 22  1  0
 22 23  1  0
 23 24  1  0
 24 25  1  0
 25 26  1  0
 26 27  1  0
 27 28  1  0
 21 29  2  0
  5 30  1  0
 30 31  1  0
 31 32  1  0
 32 33  1  0
 33 34  1  0
 34 35  1  0
 16  4  1  0
 15  8  1  0
 29 17  1  0
 28 23  1  0
 35 30  1  0
M  END
>  <Molecule>  (78) 
CHEMBL437747

>  <Standard Type>  (78) 
Ki

>  <Standard Relation>  (78) 
>

>  <Standard Value>  (78) 
1584.89

>  <Standard Units>  (78) 
nM

>  <pChEMBL Value>  (78) 
nan

>  <Comment>  (78) 
inactive

>  <Compound Key>  (78) 
SID103905437

>  <Assay>  (78) 
CHEMBL1963742

>  <Assay Description>  (78) 
PUBCHEM_BIOASSAY: Navigating the Kinome. (Class of assay: other) Panel member name: JAK3

>  <BAO Format>  (78) 
assay format

>  <Target>  (78) 
CHEMBL2148

>  <Target Pref. Name>  (78) 
Tyrosine-protein kinase JAK3

>  <Target Organism>  (78) 
Homo sapiens

>  <Target Type>  (78) 
SINGLE PROTEIN

>  <Document>  (78) 
CHEMBL1201862

>  <Source>  (78) 
PubChem BioAssays

>  <Max Phase>  (78) 
0

>  <#Ro5 Violations>  (78) 
2

>  <Molecular Weight>  (78) 
513.52

>  <Ligand Efficiency BEI>  (78) 
nan

>  <Ligand Efficiency LE>  (78) 
nan

>  <Ligand Efficiency LLE>  (78) 
nan

>  <Ligand Efficiency SEI>  (78) 
nan

>  <ALogP>  (78) 
6.94

>  <Assay Organism>  (78) 
nan

>  <Assay Tissue ChEMBL ID>  (78) 
nan

>  <Assay Tissue Name>  (78) 
nan

>  <Assay Cell Type>  (78) 
nan

>  <Assay Subcellular Fraction>  (78) 
nan

>  <Organism Tax ID>  (78) 
9606

>  <BAO Format ID>  (78) 
BAO_0000019

>  <Published Type>  (78) 
nan

>  <Published Relation>  (78) 
nan

>  <Published Value>  (78) 
nan

>  <Published Units>  (78) 
nan

>  <Canonical Smiles>  (78) 
CCCn1c(nc(c2ccc(Cl)c(Cl)c2)c1c3ccnc(NC4CCCCC4)n3)C5CCNCC5

>  <Data Validity Comment>  (78) 
nan

>  <Document Journal>  (78) 
nan

>  <Document Year>  (78) 
nan

>  <SRC ID>  (78) 
7

>  <UO Units>  (78) 
UO_0000065

>  <Potential Duplicate>  (78) 
False

>  <Class>  (78) 
0

$$$$

     RDKit          2D

 24 27  0  0  0  0  0  0  0  0999 V2000
    3.0000    0.0000    0.0000 O   0  0  0  0  0  0  0  0  0  0  0  0
    1.5000    0.0000    0.0000 C   0  0  0  0  0  0  0  0  0  0  0  0
    0.7500   -1.2990    0.0000 N   0  0  0  0  0  0  0  0  0  0  0  0
   -0.7500   -1.2990    0.0000 C   0  0  0  0  0  0  0  0  0  0  0  0
   -1.5000    0.0000    0.0000 C   0  0  0  0  0  0  0  0  0  0  0  0
   -0.7500    1.2990    0.0000 C   0  0  0  0  0  0  0  0  0  0  0  0
   -1.2135    2.7256    0.0000 N   0  0  0  0  0  0  0  0  0  0  0  0
   -0.0000    3.6073    0.0000 C   0  0  0  0  0  0  0  0  0  0  0  0
    1.2135    2.7256    0.0000 C   0  0  0  0  0  0  0  0  0  0  0  0
    0.7500    1.2990    0.0000 C   0  0  0  0  0  0  0  0  0  0  0  0
   -0.0000    5.1073    0.0000 C   0  0  0  0  0  0  0  0  0  0  0  0
    1.2990    5.8573    0.0000 C   0  0  0  0  0  0  0  0  0  0  0  0
    1.2990    7.3573    0.0000 C   0  0  0  0  0  0  0  0  0  0  0  0
    0.0000    8.1073    0.0000 N   0  0  0  0  0  0  0  0  0  0  0  0
   -1.2990    7.3573    0.0000 C   0  0  0  0  0  0  0  0  0  0  0  0
   -2.5981    8.1073    0.0000 C   0  0  0  0  0  0  0  0  0  0  0  0
   -2.5981    9.6073    0.0000 C   0  0  0  0  0  0  0  0  0  0  0  0
   -3.8971   10.3573    0.0000 C   0  0  0  0  0  0  0  0  0  0  0  0
   -3.8971   11.8573    0.0000 C   0  0  0  0  0  0  0  0  0  0  0  0
   -5.1962   12.6073    0.0000 C   0  0  0  0  0  0  0  0  0  0  0  0
   -6.4952   11.8573    0.0000 C   0  0  0  0  0  0  0  0  0  0  0  0
   -6.4952   10.3573    0.0000 C   0  0  0  0  0  0  0  0  0  0  0  0
   -5.1962    9.6073    0.0000 C   0  0  0  0  0  0  0  0  0  0  0  0
   -1.2990    5.8573    0.0000 C   0  0  0  0  0  0  0  0  0  0  0  0
  1  2  2  0
  2  3  1  0
  3  4  1  0
  4  5  1  0
  5  6  1  0
  6  7  1  0
  7  8  1  0
  8  9  2  0
  9 10  1  0
  8 11  1  0
 11 12  2  0
 12 13  1  0
 13 14  2  0
 14 15  1  0
 15 16  1  0
 16 17  2  3
 17 18  1  0
 18 19  2  0
 19 20  1  0
 20 21  2  0
 21 22  1  0
 22 23  2  0
 15 24  2  0
 10  2  1  0
 10  6  2  0
 24 11  1  0
 23 18  1  0
M  END
>  <Molecule>  (79) 
CHEMBL1997129

>  <Standard Type>  (79) 
Ki

>  <Standard Relation>  (79) 
=

>  <Standard Value>  (79) 
501.19

>  <Standard Units>  (79) 
nM

>  <pChEMBL Value>  (79) 
6.3

>  <Comment>  (79) 
active

>  <Compound Key>  (79) 
SID103905259

>  <Assay>  (79) 
CHEMBL1963742

>  <Assay Description>  (79) 
PUBCHEM_BIOASSAY: Navigating the Kinome. (Class of assay: other) Panel member name: JAK3

>  <BAO Format>  (79) 
assay format

>  <Target>  (79) 
CHEMBL2148

>  <Target Pref. Name>  (79) 
Tyrosine-protein kinase JAK3

>  <Target Organism>  (79) 
Homo sapiens

>  <Target Type>  (79) 
SINGLE PROTEIN

>  <Document>  (79) 
CHEMBL1201862

>  <Source>  (79) 
PubChem BioAssays

>  <Max Phase>  (79) 
0

>  <#Ro5 Violations>  (79) 
0

>  <Molecular Weight>  (79) 
315.38

>  <Ligand Efficiency BEI>  (79) 
nan

>  <Ligand Efficiency LE>  (79) 
nan

>  <Ligand Efficiency LLE>  (79) 
nan

>  <Ligand Efficiency SEI>  (79) 
nan

>  <ALogP>  (79) 
3.53

>  <Assay Organism>  (79) 
nan

>  <Assay Tissue ChEMBL ID>  (79) 
nan

>  <Assay Tissue Name>  (79) 
nan

>  <Assay Cell Type>  (79) 
nan

>  <Assay Subcellular Fraction>  (79) 
nan

>  <Organism Tax ID>  (79) 
9606

>  <BAO Format ID>  (79) 
BAO_0000019

>  <Published Type>  (79) 
nan

>  <Published Relation>  (79) 
nan

>  <Published Value>  (79) 
nan

>  <Published Units>  (79) 
nan

>  <Canonical Smiles>  (79) 
O=C1NCCc2[nH]c(cc12)c3ccnc(C=Cc4ccccc4)c3

>  <Data Validity Comment>  (79) 
nan

>  <Document Journal>  (79) 
nan

>  <Document Year>  (79) 
nan

>  <SRC ID>  (79) 
7

>  <UO Units>  (79) 
UO_0000065

>  <Potential Duplicate>  (79) 
False

>  <Class>  (79) 
1

$$$$

     RDKit          2D

 19 21  0  0  0  0  0  0  0  0999 V2000
    3.7500   -1.2990    0.0000 C   0  0  0  0  0  0  0  0  0  0  0  0
    3.0000    0.0000    0.0000 C   0  0  0  0  0  0  0  0  0  0  0  0
    3.7500    1.2990    0.0000 C   0  0  0  0  0  0  0  0  0  0  0  0
    1.5000    0.0000    0.0000 C   0  0  0  0  0  0  0  0  0  0  0  0
    0.7500   -1.2990    0.0000 C   0  0  0  0  0  0  0  0  0  0  0  0
   -0.7500   -1.2990    0.0000 C   0  0  0  0  0  0  0  0  0  0  0  0
   -1.5000    0.0000    0.0000 C   0  0  0  0  0  0  0  0  0  0  0  0
   -3.0000    0.0000    0.0000 C   0  0  0  0  0  0  0  0  0  0  0  0
   -3.7500   -1.2990    0.0000 O   0  0  0  0  0  0  0  0  0  0  0  0
   -3.7500    1.2990    0.0000 C   0  0  0  0  0  0  0  0  0  0  0  0
   -5.2500    1.2990    0.0000 C   0  0  0  0  0  0  0  0  0  0  0  0
   -6.0000    0.0000    0.0000 C   0  0  0  0  0  0  0  0  0  0  0  0
   -6.0000    2.5981    0.0000 C   0  0  0  0  0  0  0  0  0  0  0  0
   -5.2500    3.8971    0.0000 C   0  0  0  0  0  0  0  0  0  0  0  0
   -3.7500    3.8971    0.0000 N   0  0  0  0  0  0  0  0  0  0  0  0
   -3.0000    2.5981    0.0000 C   0  0  0  0  0  0  0  0  0  0  0  0
   -1.5000    2.5981    0.0000 N   0  0  0  0  0  0  0  0  0  0  0  0
   -0.7500    1.2990    0.0000 C   0  0  0  0  0  0  0  0  0  0  0  0
    0.7500    1.2990    0.0000 C   0  0  0  0  0  0  0  0  0  0  0  0
  1  2  1  0
  2  3  1  0
  2  4  1  0
  4  5  2  0
  5  6  1  0
  6  7  2  0
  7  8  1  0
  8  9  2  0
  8 10  1  0
 10 11  2  0
 11 12  1  0
 11 13  1  0
 13 14  2  0
 14 15  1  0
 15 16  2  0
 16 17  1  0
 17 18  1  0
 18 19  2  0
 19  4  1  0
 18  7  1  0
 16 10  1  0
M  END
>  <Molecule>  (80) 
CHEMBL1989471

>  <Standard Type>  (80) 
Ki

>  <Standard Relation>  (80) 
>

>  <Standard Value>  (80) 
5011.87

>  <Standard Units>  (80) 
nM

>  <pChEMBL Value>  (80) 
nan

>  <Comment>  (80) 
inactive

>  <Compound Key>  (80) 
SID103905460

>  <Assay>  (80) 
CHEMBL1963742

>  <Assay Description>  (80) 
PUBCHEM_BIOASSAY: Navigating the Kinome. (Class of assay: other) Panel member name: JAK3

>  <BAO Format>  (80) 
assay format

>  <Target>  (80) 
CHEMBL2148

>  <Target Pref. Name>  (80) 
Tyrosine-protein kinase JAK3

>  <Target Organism>  (80) 
Homo sapiens

>  <Target Type>  (80) 
SINGLE PROTEIN

>  <Document>  (80) 
CHEMBL1201862

>  <Source>  (80) 
PubChem BioAssays

>  <Max Phase>  (80) 
0

>  <#Ro5 Violations>  (80) 
0

>  <Molecular Weight>  (80) 
252.32

>  <Ligand Efficiency BEI>  (80) 
nan

>  <Ligand Efficiency LE>  (80) 
nan

>  <Ligand Efficiency LLE>  (80) 
nan

>  <Ligand Efficiency SEI>  (80) 
nan

>  <ALogP>  (80) 
3.51

>  <Assay Organism>  (80) 
nan

>  <Assay Tissue ChEMBL ID>  (80) 
nan

>  <Assay Tissue Name>  (80) 
nan

>  <Assay Cell Type>  (80) 
nan

>  <Assay Subcellular Fraction>  (80) 
nan

>  <Organism Tax ID>  (80) 
9606

>  <BAO Format ID>  (80) 
BAO_0000019

>  <Published Type>  (80) 
nan

>  <Published Relation>  (80) 
nan

>  <Published Value>  (80) 
nan

>  <Published Units>  (80) 
nan

>  <Canonical Smiles>  (80) 
CC(C)c1ccc2C(=O)c3c(C)ccnc3Nc2c1

>  <Data Validity Comment>  (80) 
nan

>  <Document Journal>  (80) 
nan

>  <Document Year>  (80) 
nan

>  <SRC ID>  (80) 
7

>  <UO Units>  (80) 
UO_0000065

>  <Potential Duplicate>  (80) 
False

>  <Class>  (80) 
0

$$$$

     RDKit          2D

 18 20  0  0  0  0  0  0  0  0999 V2000
   -8.0325    5.3050    0.0000 C   0  0  0  0  0  0  0  0  0  0  0  0
   -6.9177    4.3013    0.0000 C   0  0  0  0  0  0  0  0  0  0  0  0
   -7.2296    2.8340    0.0000 O   0  0  0  0  0  0  0  0  0  0  0  0
   -5.4912    4.7648    0.0000 C   0  0  0  0  0  0  0  0  0  0  0  0
   -5.1793    6.2320    0.0000 C   0  0  0  0  0  0  0  0  0  0  0  0
   -3.7527    6.6955    0.0000 C   0  0  0  0  0  0  0  0  0  0  0  0
   -2.6380    5.6918    0.0000 C   0  0  0  0  0  0  0  0  0  0  0  0
   -2.9499    4.2246    0.0000 C   0  0  0  0  0  0  0  0  0  0  0  0
   -4.3764    3.7611    0.0000 C   0  0  0  0  0  0  0  0  0  0  0  0
   -1.8351    3.2209    0.0000 C   0  0  0  0  0  0  0  0  0  0  0  0
   -0.4086    3.6844    0.0000 C   0  0  0  0  0  0  0  0  0  0  0  0
    0.7062    2.6807    0.0000 N   0  0  0  0  0  0  0  0  0  0  0  0
    0.3943    1.2135    0.0000 C   0  0  0  0  0  0  0  0  0  0  0  0
    1.2760    0.0000    0.0000 N   0  0  0  0  0  0  0  0  0  0  0  0
    0.3943   -1.2135    0.0000 C   0  0  0  0  0  0  0  0  0  0  0  0
   -1.0323   -0.7500    0.0000 C   0  0  0  0  0  0  0  0  0  0  0  0
   -1.0323    0.7500    0.0000 C   0  0  0  0  0  0  0  0  0  0  0  0
   -2.1470    1.7537    0.0000 C   0  0  0  0  0  0  0  0  0  0  0  0
  1  2  1  0
  2  3  2  0
  2  4  1  0
  4  5  2  0
  5  6  1  0
  6  7  2  0
  7  8  1  0
  8  9  2  0
  8 10  1  0
 10 11  2  0
 11 12  1  0
 12 13  2  0
 13 14  1  0
 14 15  1  0
 15 16  2  0
 16 17  1  0
 17 18  2  0
  9  4  1  0
 18 10  1  0
 17 13  1  0
M  END
>  <Molecule>  (81) 
CHEMBL2000568

>  <Standard Type>  (81) 
Ki

>  <Standard Relation>  (81) 
>

>  <Standard Value>  (81) 
3162.28

>  <Standard Units>  (81) 
nM

>  <pChEMBL Value>  (81) 
nan

>  <Comment>  (81) 
inactive

>  <Compound Key>  (81) 
SID103904786

>  <Assay>  (81) 
CHEMBL1963742

>  <Assay Description>  (81) 
PUBCHEM_BIOASSAY: Navigating the Kinome. (Class of assay: other) Panel member name: JAK3

>  <BAO Format>  (81) 
assay format

>  <Target>  (81) 
CHEMBL2148

>  <Target Pref. Name>  (81) 
Tyrosine-protein kinase JAK3

>  <Target Organism>  (81) 
Homo sapiens

>  <Target Type>  (81) 
SINGLE PROTEIN

>  <Document>  (81) 
CHEMBL1201862

>  <Source>  (81) 
PubChem BioAssays

>  <Max Phase>  (81) 
0

>  <#Ro5 Violations>  (81) 
0

>  <Molecular Weight>  (81) 
236.27

>  <Ligand Efficiency BEI>  (81) 
nan

>  <Ligand Efficiency LE>  (81) 
nan

>  <Ligand Efficiency LLE>  (81) 
nan

>  <Ligand Efficiency SEI>  (81) 
nan

>  <ALogP>  (81) 
3.43

>  <Assay Organism>  (81) 
nan

>  <Assay Tissue ChEMBL ID>  (81) 
nan

>  <Assay Tissue Name>  (81) 
nan

>  <Assay Cell Type>  (81) 
nan

>  <Assay Subcellular Fraction>  (81) 
nan

>  <Organism Tax ID>  (81) 
9606

>  <BAO Format ID>  (81) 
BAO_0000019

>  <Published Type>  (81) 
nan

>  <Published Relation>  (81) 
nan

>  <Published Value>  (81) 
nan

>  <Published Units>  (81) 
nan

>  <Canonical Smiles>  (81) 
CC(=O)c1cccc(c1)c2cnc3[nH]ccc3c2

>  <Data Validity Comment>  (81) 
nan

>  <Document Journal>  (81) 
nan

>  <Document Year>  (81) 
nan

>  <SRC ID>  (81) 
7

>  <UO Units>  (81) 
UO_0000065

>  <Potential Duplicate>  (81) 
False

>  <Class>  (81) 
0

$$$$

     RDKit          2D

 33 37  0  0  0  0  0  0  0  0999 V2000
    8.0182   -0.4070    0.0000 C   0  0  0  0  0  0  0  0  0  0  0  0
    8.3301    1.0602    0.0000 C   0  0  0  0  0  0  0  0  0  0  0  0
    7.2154    2.0639    0.0000 N   0  0  0  0  0  0  0  0  0  0  0  0
    5.7888    1.6004    0.0000 C   0  0  0  0  0  0  0  0  0  0  0  0
    4.6741    2.6041    0.0000 C   0  0  0  0  0  0  0  0  0  0  0  0
    4.9859    4.0713    0.0000 N   0  0  0  0  0  0  0  0  0  0  0  0
    6.4125    4.5348    0.0000 C   0  0  0  0  0  0  0  0  0  0  0  0
    7.5272    3.5312    0.0000 C   0  0  0  0  0  0  0  0  0  0  0  0
    3.8712    5.0750    0.0000 C   0  0  0  0  0  0  0  0  0  0  0  0
    4.1831    6.5422    0.0000 C   0  0  0  0  0  0  0  0  0  0  0  0
    3.0684    7.5459    0.0000 C   0  0  0  0  0  0  0  0  0  0  0  0
    1.6418    7.0824    0.0000 C   0  0  0  0  0  0  0  0  0  0  0  0
    0.5271    8.0861    0.0000 N   0  0  0  0  0  0  0  0  0  0  0  0
   -0.8995    7.6226    0.0000 C   0  0  0  0  0  0  0  0  0  0  0  0
   -2.0143    8.6263    0.0000 N   0  0  0  0  0  0  0  0  0  0  0  0
   -3.4408    8.1628    0.0000 C   0  0  0  0  0  0  0  0  0  0  0  0
   -3.7527    6.6955    0.0000 C   0  0  0  0  0  0  0  0  0  0  0  0
   -5.1793    6.2320    0.0000 C   0  0  0  0  0  0  0  0  0  0  0  0
   -6.6059    5.7685    0.0000 N   0  0  0  0  0  0  0  0  0  0  0  0
   -2.6380    5.6918    0.0000 C   0  0  0  0  0  0  0  0  0  0  0  0
   -2.9499    4.2246    0.0000 N   0  0  0  0  0  0  0  0  0  0  0  0
   -1.8351    3.2209    0.0000 C   0  0  0  0  0  0  0  0  0  0  0  0
   -0.4086    3.6844    0.0000 C   0  0  0  0  0  0  0  0  0  0  0  0
    0.7062    2.6807    0.0000 C   0  0  0  0  0  0  0  0  0  0  0  0
    0.3943    1.2135    0.0000 C   0  0  0  0  0  0  0  0  0  0  0  0
    1.2760    0.0000    0.0000 N   0  0  0  0  0  0  0  0  0  0  0  0
    0.3943   -1.2135    0.0000 N   0  0  0  0  0  0  0  0  0  0  0  0
   -1.0323   -0.7500    0.0000 C   0  0  0  0  0  0  0  0  0  0  0  0
   -1.0323    0.7500    0.0000 C   0  0  0  0  0  0  0  0  0  0  0  0
   -2.1470    1.7537    0.0000 C   0  0  0  0  0  0  0  0  0  0  0  0
   -1.2114    6.1554    0.0000 N   0  0  0  0  0  0  0  0  0  0  0  0
    1.3299    5.6152    0.0000 C   0  0  0  0  0  0  0  0  0  0  0  0
    2.4446    4.6115    0.0000 C   0  0  0  0  0  0  0  0  0  0  0  0
  1  2  1  0
  2  3  1  0
  3  4  1  0
  4  5  1  0
  5  6  1  0
  6  7  1  0
  7  8  1  0
  6  9  1  0
  9 10  2  0
 10 11  1  0
 11 12  2  0
 12 13  1  0
 13 14  1  0
 14 15  2  0
 15 16  1  0
 16 17  2  0
 17 18  1  0
 18 19  3  0
 17 20  1  0
 20 21  1  0
 21 22  1  0
 22 23  2  0
 23 24  1  0
 24 25  2  0
 25 26  1  0
 26 27  1  0
 27 28  2  0
 28 29  1  0
 29 30  2  0
 20 31  2  0
 12 32  1  0
 32 33  2  0
  8  3  1  0
 33  9  1  0
 31 14  1  0
 30 22  1  0
 29 25  1  0
M  END
>  <Molecule>  (82) 
CHEMBL1973516

>  <Standard Type>  (82) 
Ki

>  <Standard Relation>  (82) 
>

>  <Standard Value>  (82) 
5011.87

>  <Standard Units>  (82) 
nM

>  <pChEMBL Value>  (82) 
nan

>  <Comment>  (82) 
inactive

>  <Compound Key>  (82) 
SID103905160

>  <Assay>  (82) 
CHEMBL1963742

>  <Assay Description>  (82) 
PUBCHEM_BIOASSAY: Navigating the Kinome. (Class of assay: other) Panel member name: JAK3

>  <BAO Format>  (82) 
assay format

>  <Target>  (82) 
CHEMBL2148

>  <Target Pref. Name>  (82) 
Tyrosine-protein kinase JAK3

>  <Target Organism>  (82) 
Homo sapiens

>  <Target Type>  (82) 
SINGLE PROTEIN

>  <Document>  (82) 
CHEMBL1201862

>  <Source>  (82) 
PubChem BioAssays

>  <Max Phase>  (82) 
0

>  <#Ro5 Violations>  (82) 
0

>  <Molecular Weight>  (82) 
439.53

>  <Ligand Efficiency BEI>  (82) 
nan

>  <Ligand Efficiency LE>  (82) 
nan

>  <Ligand Efficiency LLE>  (82) 
nan

>  <Ligand Efficiency SEI>  (82) 
nan

>  <ALogP>  (82) 
3.85

>  <Assay Organism>  (82) 
nan

>  <Assay Tissue ChEMBL ID>  (82) 
nan

>  <Assay Tissue Name>  (82) 
nan

>  <Assay Cell Type>  (82) 
nan

>  <Assay Subcellular Fraction>  (82) 
nan

>  <Organism Tax ID>  (82) 
9606

>  <BAO Format ID>  (82) 
BAO_0000019

>  <Published Type>  (82) 
nan

>  <Published Relation>  (82) 
nan

>  <Published Value>  (82) 
nan

>  <Published Units>  (82) 
nan

>  <Canonical Smiles>  (82) 
CCN1CCN(CC1)c2ccc(Nc3ncc(C#N)c(Nc4ccc5[nH]ncc5c4)n3)cc2

>  <Data Validity Comment>  (82) 
nan

>  <Document Journal>  (82) 
nan

>  <Document Year>  (82) 
nan

>  <SRC ID>  (82) 
7

>  <UO Units>  (82) 
UO_0000065

>  <Potential Duplicate>  (82) 
False

>  <Class>  (82) 
0

$$$$

     RDKit          2D

 30 33  0  0  0  0  0  0  0  0999 V2000
   -2.6401   -3.1891    0.0000 C   0  0  0  0  0  0  0  0  0  0  0  0
   -1.2135   -2.7256    0.0000 C   0  0  0  0  0  0  0  0  0  0  0  0
   -0.0000   -3.6073    0.0000 N   0  0  0  0  0  0  0  0  0  0  0  0
    1.2135   -2.7256    0.0000 N   0  0  0  0  0  0  0  0  0  0  0  0
    0.7500   -1.2990    0.0000 C   0  0  0  0  0  0  0  0  0  0  0  0
    1.5000    0.0000    0.0000 C   0  0  0  0  0  0  0  0  0  0  0  0
    0.7500    1.2990    0.0000 C   0  0  0  0  0  0  0  0  0  0  0  0
   -0.7500    1.2990    0.0000 C   0  0  0  0  0  0  0  0  0  0  0  0
   -1.5000    0.0000    0.0000 C   0  0  0  0  0  0  0  0  0  0  0  0
   -3.0000    0.0000    0.0000 C   0  0  0  0  0  0  0  0  0  0  0  0
   -3.7500    1.2990    0.0000 C   0  0  0  0  0  0  0  0  0  0  0  0
   -5.2500    1.2990    0.0000 C   0  0  0  0  0  0  0  0  0  0  0  0
   -6.0000    0.0000    0.0000 C   0  0  0  0  0  0  0  0  0  0  0  0
   -7.5000    0.0000    0.0000 N   0  0  0  0  0  0  0  0  0  0  0  0
   -8.2500    1.2990    0.0000 C   0  0  0  0  0  0  0  0  0  0  0  0
   -7.5000    2.5981    0.0000 O   0  0  0  0  0  0  0  0  0  0  0  0
   -9.7500    1.2990    0.0000 N   0  0  0  0  0  0  0  0  0  0  0  0
  -10.5000    2.5981    0.0000 C   0  0  0  0  0  0  0  0  0  0  0  0
   -9.7500    3.8971    0.0000 C   0  0  0  0  0  0  0  0  0  0  0  0
  -10.5000    5.1962    0.0000 C   0  0  0  0  0  0  0  0  0  0  0  0
  -12.0000    5.1962    0.0000 C   0  0  0  0  0  0  0  0  0  0  0  0
  -12.7500    3.8971    0.0000 C   0  0  0  0  0  0  0  0  0  0  0  0
  -12.0000    2.5981    0.0000 C   0  0  0  0  0  0  0  0  0  0  0  0
  -14.2500    3.8971    0.0000 C   0  0  0  0  0  0  0  0  0  0  0  0
  -15.7500    3.8971    0.0000 F   0  0  0  0  0  0  0  0  0  0  0  0
  -14.2500    5.3971    0.0000 F   0  0  0  0  0  0  0  0  0  0  0  0
  -14.2500    2.3971    0.0000 F   0  0  0  0  0  0  0  0  0  0  0  0
   -5.2500   -1.2990    0.0000 C   0  0  0  0  0  0  0  0  0  0  0  0
   -3.7500   -1.2990    0.0000 C   0  0  0  0  0  0  0  0  0  0  0  0
   -0.7500   -1.2990    0.0000 C   0  0  0  0  0  0  0  0  0  0  0  0
  1  2  1  0
  2  3  2  0
  3  4  1  0
  4  5  1  0
  5  6  2  0
  6  7  1  0
  7  8  2  0
  8  9  1  0
  9 10  1  0
 10 11  2  0
 11 12  1  0
 12 13  2  0
 13 14  1  0
 14 15  1  0
 15 16  2  0
 15 17  1  0
 17 18  1  0
 18 19  2  0
 19 20  1  0
 20 21  2  0
 21 22  1  0
 22 23  2  0
 22 24  1  0
 24 25  1  0
 24 26  1  0
 24 27  1  0
 13 28  1  0
 28 29  2  0
  9 30  2  0
 30  2  1  0
 30  5  1  0
 29 10  1  0
 23 18  1  0
M  END
>  <Molecule>  (83) 
CHEMBL1970074

>  <Standard Type>  (83) 
Ki

>  <Standard Relation>  (83) 
>

>  <Standard Value>  (83) 
1584.89

>  <Standard Units>  (83) 
nM

>  <pChEMBL Value>  (83) 
nan

>  <Comment>  (83) 
inactive

>  <Compound Key>  (83) 
SID103904358

>  <Assay>  (83) 
CHEMBL1963742

>  <Assay Description>  (83) 
PUBCHEM_BIOASSAY: Navigating the Kinome. (Class of assay: other) Panel member name: JAK3

>  <BAO Format>  (83) 
assay format

>  <Target>  (83) 
CHEMBL2148

>  <Target Pref. Name>  (83) 
Tyrosine-protein kinase JAK3

>  <Target Organism>  (83) 
Homo sapiens

>  <Target Type>  (83) 
SINGLE PROTEIN

>  <Document>  (83) 
CHEMBL1201862

>  <Source>  (83) 
PubChem BioAssays

>  <Max Phase>  (83) 
0

>  <#Ro5 Violations>  (83) 
1

>  <Molecular Weight>  (83) 
410.4

>  <Ligand Efficiency BEI>  (83) 
nan

>  <Ligand Efficiency LE>  (83) 
nan

>  <Ligand Efficiency LLE>  (83) 
nan

>  <Ligand Efficiency SEI>  (83) 
nan

>  <ALogP>  (83) 
6.2

>  <Assay Organism>  (83) 
nan

>  <Assay Tissue ChEMBL ID>  (83) 
nan

>  <Assay Tissue Name>  (83) 
nan

>  <Assay Cell Type>  (83) 
nan

>  <Assay Subcellular Fraction>  (83) 
nan

>  <Organism Tax ID>  (83) 
9606

>  <BAO Format ID>  (83) 
BAO_0000019

>  <Published Type>  (83) 
nan

>  <Published Relation>  (83) 
nan

>  <Published Value>  (83) 
nan

>  <Published Units>  (83) 
nan

>  <Canonical Smiles>  (83) 
Cc1n[nH]c2cccc(c3ccc(NC(=O)Nc4cccc(c4)C(F)(F)F)cc3)c12

>  <Data Validity Comment>  (83) 
nan

>  <Document Journal>  (83) 
nan

>  <Document Year>  (83) 
nan

>  <SRC ID>  (83) 
7

>  <UO Units>  (83) 
UO_0000065

>  <Potential Duplicate>  (83) 
False

>  <Class>  (83) 
0

$$$$

     RDKit          2D

 25 27  0  0  0  0  0  0  0  0999 V2000
    3.0000    0.0000    0.0000 C   0  0  0  0  0  0  0  0  0  0  0  0
    1.5000    0.0000    0.0000 C   0  0  0  0  0  0  0  0  0  0  0  0
    0.7500   -1.2990    0.0000 C   0  0  0  0  0  0  0  0  0  0  0  0
   -0.7500   -1.2990    0.0000 C   0  0  0  0  0  0  0  0  0  0  0  0
   -1.5000    0.0000    0.0000 C   0  0  0  0  0  0  0  0  0  0  0  0
   -3.0000    0.0000    0.0000 N   0  0  0  0  0  0  0  0  0  0  0  0
   -3.7500    1.2990    0.0000 C   0  0  0  0  0  0  0  0  0  0  0  0
   -3.0000    2.5981    0.0000 C   0  0  0  0  0  0  0  0  0  0  0  0
   -1.5000    2.5981    0.0000 C   0  0  0  0  0  0  0  0  0  0  0  0
   -0.7500    3.8971    0.0000 N   0  0  0  0  0  0  0  0  0  0  0  0
   -1.5000    5.1962    0.0000 C   0  0  0  0  0  0  0  0  0  0  0  0
   -3.0000    5.1962    0.0000 O   0  0  0  0  0  0  0  0  0  0  0  0
   -0.7500    6.4952    0.0000 N   0  0  0  0  0  0  0  0  0  0  0  0
   -1.5000    7.7942    0.0000 C   0  0  0  0  0  0  0  0  0  0  0  0
   -0.7500    9.0933    0.0000 C   0  0  0  0  0  0  0  0  0  0  0  0
   -1.5000   10.3923    0.0000 C   0  0  0  0  0  0  0  0  0  0  0  0
   -3.0000   10.3923    0.0000 C   0  0  0  0  0  0  0  0  0  0  0  0
   -3.7500    9.0933    0.0000 C   0  0  0  0  0  0  0  0  0  0  0  0
   -3.0000    7.7942    0.0000 N   0  0  0  0  0  0  0  0  0  0  0  0
   -5.2500    9.0933    0.0000 C   0  0  0  0  0  0  0  0  0  0  0  0
   -6.7500    9.0933    0.0000 F   0  0  0  0  0  0  0  0  0  0  0  0
   -5.2500   10.5933    0.0000 F   0  0  0  0  0  0  0  0  0  0  0  0
   -5.2500    7.5933    0.0000 F   0  0  0  0  0  0  0  0  0  0  0  0
   -0.7500    1.2990    0.0000 C   0  0  0  0  0  0  0  0  0  0  0  0
    0.7500    1.2990    0.0000 C   0  0  0  0  0  0  0  0  0  0  0  0
  1  2  1  0
  2  3  2  0
  3  4  1  0
  4  5  2  0
  5  6  1  0
  6  7  2  0
  7  8  1  0
  8  9  2  0
  9 10  1  0
 10 11  1  0
 11 12  2  0
 11 13  1  0
 13 14  1  0
 14 15  2  0
 15 16  1  0
 16 17  2  0
 17 18  1  0
 18 19  2  0
 18 20  1  0
 20 21  1  0
 20 22  1  0
 20 23  1  0
  9 24  1  0
 24 25  2  0
 25  2  1  0
 24  5  1  0
 19 14  1  0
M  END
>  <Molecule>  (84) 
CHEMBL1964444

>  <Standard Type>  (84) 
Ki

>  <Standard Relation>  (84) 
>

>  <Standard Value>  (84) 
3162.28

>  <Standard Units>  (84) 
nM

>  <pChEMBL Value>  (84) 
nan

>  <Comment>  (84) 
inactive

>  <Compound Key>  (84) 
SID103904873

>  <Assay>  (84) 
CHEMBL1963742

>  <Assay Description>  (84) 
PUBCHEM_BIOASSAY: Navigating the Kinome. (Class of assay: other) Panel member name: JAK3

>  <BAO Format>  (84) 
assay format

>  <Target>  (84) 
CHEMBL2148

>  <Target Pref. Name>  (84) 
Tyrosine-protein kinase JAK3

>  <Target Organism>  (84) 
Homo sapiens

>  <Target Type>  (84) 
SINGLE PROTEIN

>  <Document>  (84) 
CHEMBL1201862

>  <Source>  (84) 
PubChem BioAssays

>  <Max Phase>  (84) 
0

>  <#Ro5 Violations>  (84) 
0

>  <Molecular Weight>  (84) 
346.31

>  <Ligand Efficiency BEI>  (84) 
nan

>  <Ligand Efficiency LE>  (84) 
nan

>  <Ligand Efficiency LLE>  (84) 
nan

>  <Ligand Efficiency SEI>  (84) 
nan

>  <ALogP>  (84) 
4.6

>  <Assay Organism>  (84) 
nan

>  <Assay Tissue ChEMBL ID>  (84) 
nan

>  <Assay Tissue Name>  (84) 
nan

>  <Assay Cell Type>  (84) 
nan

>  <Assay Subcellular Fraction>  (84) 
nan

>  <Organism Tax ID>  (84) 
9606

>  <BAO Format ID>  (84) 
BAO_0000019

>  <Published Type>  (84) 
nan

>  <Published Relation>  (84) 
nan

>  <Published Value>  (84) 
nan

>  <Published Units>  (84) 
nan

>  <Canonical Smiles>  (84) 
Cc1ccc2nccc(NC(=O)Nc3cccc(n3)C(F)(F)F)c2c1

>  <Data Validity Comment>  (84) 
nan

>  <Document Journal>  (84) 
nan

>  <Document Year>  (84) 
nan

>  <SRC ID>  (84) 
7

>  <UO Units>  (84) 
UO_0000065

>  <Potential Duplicate>  (84) 
False

>  <Class>  (84) 
0

$$$$

     RDKit          2D

 24 26  0  0  0  0  0  0  0  0999 V2000
    3.7500   -6.4952    0.0000 O   0  0  0  0  0  0  0  0  0  0  0  0
    3.0000   -5.1962    0.0000 C   0  0  0  0  0  0  0  0  0  0  0  0
    1.5000   -5.1962    0.0000 C   0  0  0  0  0  0  0  0  0  0  0  0
    0.7500   -3.8971    0.0000 N   0  0  0  0  0  0  0  0  0  0  0  0
    1.5000   -2.5981    0.0000 C   0  0  0  0  0  0  0  0  0  0  0  0
    3.0000   -2.5981    0.0000 O   0  0  0  0  0  0  0  0  0  0  0  0
    0.7500   -1.2990    0.0000 C   0  0  0  0  0  0  0  0  0  0  0  0
    1.5000    0.0000    0.0000 C   0  0  0  0  0  0  0  0  0  0  0  0
    0.7500    1.2990    0.0000 C   0  0  0  0  0  0  0  0  0  0  0  0
   -0.7500    1.2990    0.0000 C   0  0  0  0  0  0  0  0  0  0  0  0
   -1.5000    0.0000    0.0000 C   0  0  0  0  0  0  0  0  0  0  0  0
   -0.7500   -1.2990    0.0000 C   0  0  0  0  0  0  0  0  0  0  0  0
   -1.5000    2.5981    0.0000 C   0  0  0  0  0  0  0  0  0  0  0  0
   -0.7500    3.8971    0.0000 C   0  0  0  0  0  0  0  0  0  0  0  0
   -1.5000    5.1962    0.0000 C   0  0  0  0  0  0  0  0  0  0  0  0
   -3.0000    5.1962    0.0000 N   0  0  0  0  0  0  0  0  0  0  0  0
   -3.7500    3.8971    0.0000 C   0  0  0  0  0  0  0  0  0  0  0  0
   -3.0000    2.5981    0.0000 C   0  0  0  0  0  0  0  0  0  0  0  0
    0.7500   -6.4952    0.0000 C   0  0  0  0  0  0  0  0  0  0  0  0
   -0.7500   -6.4952    0.0000 C   0  0  0  0  0  0  0  0  0  0  0  0
   -1.5000   -7.7942    0.0000 C   0  0  0  0  0  0  0  0  0  0  0  0
   -0.7500   -9.0933    0.0000 C   0  0  0  0  0  0  0  0  0  0  0  0
    0.7500   -9.0933    0.0000 C   0  0  0  0  0  0  0  0  0  0  0  0
    1.5000   -7.7942    0.0000 C   0  0  0  0  0  0  0  0  0  0  0  0
  1  2  1  0
  2  3  1  0
  3  4  1  0
  4  5  1  0
  5  6  2  0
  5  7  1  0
  7  8  2  0
  8  9  1  0
  9 10  2  0
 10 11  1  0
 11 12  2  0
 10 13  1  0
 13 14  2  0
 14 15  1  0
 15 16  2  0
 16 17  1  0
 17 18  2  0
  3 19  1  0
 19 20  2  0
 20 21  1  0
 21 22  2  0
 22 23  1  0
 23 24  2  0
 12  7  1  0
 18 13  1  0
 24 19  1  0
M  END
>  <Molecule>  (85) 
CHEMBL1974288

>  <Standard Type>  (85) 
Ki

>  <Standard Relation>  (85) 
>

>  <Standard Value>  (85) 
1584.89

>  <Standard Units>  (85) 
nM

>  <pChEMBL Value>  (85) 
nan

>  <Comment>  (85) 
inactive

>  <Compound Key>  (85) 
SID103904552

>  <Assay>  (85) 
CHEMBL1963742

>  <Assay Description>  (85) 
PUBCHEM_BIOASSAY: Navigating the Kinome. (Class of assay: other) Panel member name: JAK3

>  <BAO Format>  (85) 
assay format

>  <Target>  (85) 
CHEMBL2148

>  <Target Pref. Name>  (85) 
Tyrosine-protein kinase JAK3

>  <Target Organism>  (85) 
Homo sapiens

>  <Target Type>  (85) 
SINGLE PROTEIN

>  <Document>  (85) 
CHEMBL1201862

>  <Source>  (85) 
PubChem BioAssays

>  <Max Phase>  (85) 
0

>  <#Ro5 Violations>  (85) 
0

>  <Molecular Weight>  (85) 
318.38

>  <Ligand Efficiency BEI>  (85) 
nan

>  <Ligand Efficiency LE>  (85) 
nan

>  <Ligand Efficiency LLE>  (85) 
nan

>  <Ligand Efficiency SEI>  (85) 
nan

>  <ALogP>  (85) 
3.21

>  <Assay Organism>  (85) 
nan

>  <Assay Tissue ChEMBL ID>  (85) 
nan

>  <Assay Tissue Name>  (85) 
nan

>  <Assay Cell Type>  (85) 
nan

>  <Assay Subcellular Fraction>  (85) 
nan

>  <Organism Tax ID>  (85) 
9606

>  <BAO Format ID>  (85) 
BAO_0000019

>  <Published Type>  (85) 
nan

>  <Published Relation>  (85) 
nan

>  <Published Value>  (85) 
nan

>  <Published Units>  (85) 
nan

>  <Canonical Smiles>  (85) 
OCC(NC(=O)c1ccc(cc1)c2ccncc2)c3ccccc3

>  <Data Validity Comment>  (85) 
nan

>  <Document Journal>  (85) 
nan

>  <Document Year>  (85) 
nan

>  <SRC ID>  (85) 
7

>  <UO Units>  (85) 
UO_0000065

>  <Potential Duplicate>  (85) 
False

>  <Class>  (85) 
0

$$$$

     RDKit          2D

 14 15  0  0  0  0  0  0  0  0999 V2000
    2.7760    0.0000    0.0000 C   0  0  0  0  0  0  0  0  0  0  0  0
    1.2760    0.0000    0.0000 C   0  0  0  0  0  0  0  0  0  0  0  0
    0.3943    1.2135    0.0000 N   0  0  0  0  0  0  0  0  0  0  0  0
   -1.0323    0.7500    0.0000 N   0  0  0  0  0  0  0  0  0  0  0  0
   -2.2458    1.6317    0.0000 C   0  0  0  0  0  0  0  0  0  0  0  0
   -1.0323   -0.7500    0.0000 C   0  0  0  0  0  0  0  0  0  0  0  0
   -1.9140   -1.9635    0.0000 S   0  0  0  0  0  0  0  0  0  0  0  0
   -1.0323   -3.1771    0.0000 C   0  0  0  0  0  0  0  0  0  0  0  0
   -1.4958   -4.6036    0.0000 C   0  0  0  0  0  0  0  0  0  0  0  0
   -0.4921   -5.7184    0.0000 O   0  0  0  0  0  0  0  0  0  0  0  0
   -2.9630   -4.9155    0.0000 N   0  0  0  0  0  0  0  0  0  0  0  0
    0.3943   -2.7135    0.0000 C   0  0  0  0  0  0  0  0  0  0  0  0
    1.6078   -3.5952    0.0000 N   0  0  0  0  0  0  0  0  0  0  0  0
    0.3943   -1.2135    0.0000 C   0  0  0  0  0  0  0  0  0  0  0  0
  1  2  1  0
  2  3  2  0
  3  4  1  0
  4  5  1  0
  4  6  1  0
  6  7  1  0
  7  8  1  0
  8  9  1  0
  9 10  2  0
  9 11  1  0
  8 12  2  0
 12 13  1  0
 12 14  1  0
 14  2  1  0
 14  6  2  0
M  END
>  <Molecule>  (86) 
CHEMBL1996837

>  <Standard Type>  (86) 
Ki

>  <Standard Relation>  (86) 
>

>  <Standard Value>  (86) 
15848.93

>  <Standard Units>  (86) 
nM

>  <pChEMBL Value>  (86) 
nan

>  <Comment>  (86) 
inactive

>  <Compound Key>  (86) 
SID103905651

>  <Assay>  (86) 
CHEMBL1963742

>  <Assay Description>  (86) 
PUBCHEM_BIOASSAY: Navigating the Kinome. (Class of assay: other) Panel member name: JAK3

>  <BAO Format>  (86) 
assay format

>  <Target>  (86) 
CHEMBL2148

>  <Target Pref. Name>  (86) 
Tyrosine-protein kinase JAK3

>  <Target Organism>  (86) 
Homo sapiens

>  <Target Type>  (86) 
SINGLE PROTEIN

>  <Document>  (86) 
CHEMBL1201862

>  <Source>  (86) 
PubChem BioAssays

>  <Max Phase>  (86) 
0

>  <#Ro5 Violations>  (86) 
0

>  <Molecular Weight>  (86) 
210.26

>  <Ligand Efficiency BEI>  (86) 
nan

>  <Ligand Efficiency LE>  (86) 
nan

>  <Ligand Efficiency LLE>  (86) 
nan

>  <Ligand Efficiency SEI>  (86) 
nan

>  <ALogP>  (86) 
0.62

>  <Assay Organism>  (86) 
nan

>  <Assay Tissue ChEMBL ID>  (86) 
nan

>  <Assay Tissue Name>  (86) 
nan

>  <Assay Cell Type>  (86) 
nan

>  <Assay Subcellular Fraction>  (86) 
nan

>  <Organism Tax ID>  (86) 
9606

>  <BAO Format ID>  (86) 
BAO_0000019

>  <Published Type>  (86) 
nan

>  <Published Relation>  (86) 
nan

>  <Published Value>  (86) 
nan

>  <Published Units>  (86) 
nan

>  <Canonical Smiles>  (86) 
Cc1nn(C)c2sc(C(=O)N)c(N)c12

>  <Data Validity Comment>  (86) 
nan

>  <Document Journal>  (86) 
nan

>  <Document Year>  (86) 
nan

>  <SRC ID>  (86) 
7

>  <UO Units>  (86) 
UO_0000065

>  <Potential Duplicate>  (86) 
False

>  <Class>  (86) 
0

$$$$

     RDKit          2D

 24 26  0  0  0  0  0  0  0  0999 V2000
    3.7500   -1.2990    0.0000 O   0  0  0  0  0  0  0  0  0  0  0  0
    3.0000    0.0000    0.0000 C   0  0  0  0  0  0  0  0  0  0  0  0
    3.7500    1.2990    0.0000 O   0  0  0  0  0  0  0  0  0  0  0  0
    1.5000    0.0000    0.0000 C   0  0  0  0  0  0  0  0  0  0  0  0
    0.7500   -1.2990    0.0000 C   0  0  0  0  0  0  0  0  0  0  0  0
   -0.7500   -1.2990    0.0000 C   0  0  0  0  0  0  0  0  0  0  0  0
   -1.5000    0.0000    0.0000 C   0  0  0  0  0  0  0  0  0  0  0  0
   -0.7500    1.2990    0.0000 C   0  0  0  0  0  0  0  0  0  0  0  0
    0.7500    1.2990    0.0000 C   0  0  0  0  0  0  0  0  0  0  0  0
    1.5000    2.5981    0.0000 N   0  0  0  0  0  0  0  0  0  0  0  0
    0.7500    3.8971    0.0000 C   0  0  0  0  0  0  0  0  0  0  0  0
    1.5000    5.1962    0.0000 N   0  0  0  0  0  0  0  0  0  0  0  0
    0.7500    6.4952    0.0000 C   0  0  0  0  0  0  0  0  0  0  0  0
   -0.7500    6.4952    0.0000 N   0  0  0  0  0  0  0  0  0  0  0  0
   -1.5000    5.1962    0.0000 C   0  0  0  0  0  0  0  0  0  0  0  0
   -3.0000    5.1962    0.0000 N   0  0  0  0  0  0  0  0  0  0  0  0
   -3.7500    6.4952    0.0000 C   0  0  0  0  0  0  0  0  0  0  0  0
   -3.0000    7.7942    0.0000 C   0  0  0  0  0  0  0  0  0  0  0  0
   -3.7500    9.0933    0.0000 C   0  0  0  0  0  0  0  0  0  0  0  0
   -5.2500    9.0933    0.0000 C   0  0  0  0  0  0  0  0  0  0  0  0
   -6.0000    7.7942    0.0000 C   0  0  0  0  0  0  0  0  0  0  0  0
   -7.5000    7.7942    0.0000 F   0  0  0  0  0  0  0  0  0  0  0  0
   -5.2500    6.4952    0.0000 C   0  0  0  0  0  0  0  0  0  0  0  0
   -0.7500    3.8971    0.0000 N   0  0  0  0  0  0  0  0  0  0  0  0
  1  2  1  0
  2  3  2  0
  2  4  1  0
  4  5  2  0
  5  6  1  0
  6  7  2  0
  7  8  1  0
  8  9  2  0
  9 10  1  0
 10 11  1  0
 11 12  2  0
 12 13  1  0
 13 14  2  0
 14 15  1  0
 15 16  1  0
 16 17  1  0
 17 18  2  0
 18 19  1  0
 19 20  2  0
 20 21  1  0
 21 22  1  0
 21 23  2  0
 15 24  2  0
  9  4  1  0
 24 11  1  0
 23 17  1  0
M  END
>  <Molecule>  (87) 
CHEMBL1979933

>  <Standard Type>  (87) 
Ki

>  <Standard Relation>  (87) 
=

>  <Standard Value>  (87) 
1584.89

>  <Standard Units>  (87) 
nM

>  <pChEMBL Value>  (87) 
5.8

>  <Comment>  (87) 
active

>  <Compound Key>  (87) 
SID103904617

>  <Assay>  (87) 
CHEMBL1963742

>  <Assay Description>  (87) 
PUBCHEM_BIOASSAY: Navigating the Kinome. (Class of assay: other) Panel member name: JAK3

>  <BAO Format>  (87) 
assay format

>  <Target>  (87) 
CHEMBL2148

>  <Target Pref. Name>  (87) 
Tyrosine-protein kinase JAK3

>  <Target Organism>  (87) 
Homo sapiens

>  <Target Type>  (87) 
SINGLE PROTEIN

>  <Document>  (87) 
CHEMBL1201862

>  <Source>  (87) 
PubChem BioAssays

>  <Max Phase>  (87) 
0

>  <#Ro5 Violations>  (87) 
0

>  <Molecular Weight>  (87) 
325.3

>  <Ligand Efficiency BEI>  (87) 
nan

>  <Ligand Efficiency LE>  (87) 
nan

>  <Ligand Efficiency LLE>  (87) 
nan

>  <Ligand Efficiency SEI>  (87) 
nan

>  <ALogP>  (87) 
3.2

>  <Assay Organism>  (87) 
nan

>  <Assay Tissue ChEMBL ID>  (87) 
nan

>  <Assay Tissue Name>  (87) 
nan

>  <Assay Cell Type>  (87) 
nan

>  <Assay Subcellular Fraction>  (87) 
nan

>  <Organism Tax ID>  (87) 
9606

>  <BAO Format ID>  (87) 
BAO_0000019

>  <Published Type>  (87) 
nan

>  <Published Relation>  (87) 
nan

>  <Published Value>  (87) 
nan

>  <Published Units>  (87) 
nan

>  <Canonical Smiles>  (87) 
OC(=O)c1ccccc1Nc2ncnc(Nc3cccc(F)c3)n2

>  <Data Validity Comment>  (87) 
nan

>  <Document Journal>  (87) 
nan

>  <Document Year>  (87) 
nan

>  <SRC ID>  (87) 
7

>  <UO Units>  (87) 
UO_0000065

>  <Potential Duplicate>  (87) 
False

>  <Class>  (87) 
1

$$$$

     RDKit          2D

 14 16  0  0  0  0  0  0  0  0999 V2000
   -5.4912    4.7648    0.0000 Cl  0  0  0  0  0  0  0  0  0  0  0  0
   -4.3764    3.7611    0.0000 C   0  0  0  0  0  0  0  0  0  0  0  0
   -4.6883    2.2939    0.0000 C   0  0  0  0  0  0  0  0  0  0  0  0
   -3.5736    1.2902    0.0000 C   0  0  0  0  0  0  0  0  0  0  0  0
   -2.1470    1.7537    0.0000 C   0  0  0  0  0  0  0  0  0  0  0  0
   -1.8351    3.2209    0.0000 C   0  0  0  0  0  0  0  0  0  0  0  0
   -2.9499    4.2246    0.0000 C   0  0  0  0  0  0  0  0  0  0  0  0
   -0.4086    3.6844    0.0000 N   0  0  0  0  0  0  0  0  0  0  0  0
    0.7062    2.6807    0.0000 N   0  0  0  0  0  0  0  0  0  0  0  0
    0.3943    1.2135    0.0000 C   0  0  0  0  0  0  0  0  0  0  0  0
    1.2760    0.0000    0.0000 N   0  0  0  0  0  0  0  0  0  0  0  0
    0.3943   -1.2135    0.0000 N   0  0  0  0  0  0  0  0  0  0  0  0
   -1.0323   -0.7500    0.0000 N   0  0  0  0  0  0  0  0  0  0  0  0
   -1.0323    0.7500    0.0000 N   0  0  0  0  0  0  0  0  0  0  0  0
  1  2  1  0
  2  3  2  0
  3  4  1  0
  4  5  2  0
  5  6  1  0
  6  7  2  0
  6  8  1  0
  8  9  2  0
  9 10  1  0
 10 11  2  0
 11 12  1  0
 12 13  2  0
 13 14  1  0
  7  2  1  0
 14  5  1  0
 14 10  1  0
M  END
>  <Molecule>  (88) 
CHEMBL1986503

>  <Standard Type>  (88) 
Ki

>  <Standard Relation>  (88) 
>

>  <Standard Value>  (88) 
5011.87

>  <Standard Units>  (88) 
nM

>  <pChEMBL Value>  (88) 
nan

>  <Comment>  (88) 
inactive

>  <Compound Key>  (88) 
SID103905561

>  <Assay>  (88) 
CHEMBL1963742

>  <Assay Description>  (88) 
PUBCHEM_BIOASSAY: Navigating the Kinome. (Class of assay: other) Panel member name: JAK3

>  <BAO Format>  (88) 
assay format

>  <Target>  (88) 
CHEMBL2148

>  <Target Pref. Name>  (88) 
Tyrosine-protein kinase JAK3

>  <Target Organism>  (88) 
Homo sapiens

>  <Target Type>  (88) 
SINGLE PROTEIN

>  <Document>  (88) 
CHEMBL1201862

>  <Source>  (88) 
PubChem BioAssays

>  <Max Phase>  (88) 
0

>  <#Ro5 Violations>  (88) 
0

>  <Molecular Weight>  (88) 
206.6

>  <Ligand Efficiency BEI>  (88) 
nan

>  <Ligand Efficiency LE>  (88) 
nan

>  <Ligand Efficiency LLE>  (88) 
nan

>  <Ligand Efficiency SEI>  (88) 
nan

>  <ALogP>  (88) 
0.72

>  <Assay Organism>  (88) 
nan

>  <Assay Tissue ChEMBL ID>  (88) 
nan

>  <Assay Tissue Name>  (88) 
nan

>  <Assay Cell Type>  (88) 
nan

>  <Assay Subcellular Fraction>  (88) 
nan

>  <Organism Tax ID>  (88) 
9606

>  <BAO Format ID>  (88) 
BAO_0000019

>  <Published Type>  (88) 
nan

>  <Published Relation>  (88) 
nan

>  <Published Value>  (88) 
nan

>  <Published Units>  (88) 
nan

>  <Canonical Smiles>  (88) 
Clc1ccc2c(c1)nnc3nnnn23

>  <Data Validity Comment>  (88) 
nan

>  <Document Journal>  (88) 
nan

>  <Document Year>  (88) 
nan

>  <SRC ID>  (88) 
7

>  <UO Units>  (88) 
UO_0000065

>  <Potential Duplicate>  (88) 
False

>  <Class>  (88) 
0

$$$$

     RDKit          2D

 30 33  0  0  0  0  0  0  0  0999 V2000
    5.2500   -1.2990    0.0000 C   0  0  0  0  0  0  0  0  0  0  0  0
    3.7500   -1.2990    0.0000 C   0  0  0  0  0  0  0  0  0  0  0  0
    3.0000    0.0000    0.0000 O   0  0  0  0  0  0  0  0  0  0  0  0
    1.5000    0.0000    0.0000 C   0  0  0  0  0  0  0  0  0  0  0  0
    0.7500   -1.2990    0.0000 C   0  0  0  0  0  0  0  0  0  0  0  0
   -0.7500   -1.2990    0.0000 C   0  0  0  0  0  0  0  0  0  0  0  0
   -1.5000    0.0000    0.0000 C   0  0  0  0  0  0  0  0  0  0  0  0
   -0.7500    1.2990    0.0000 C   0  0  0  0  0  0  0  0  0  0  0  0
    0.7500    1.2990    0.0000 C   0  0  0  0  0  0  0  0  0  0  0  0
    1.5000    2.5981    0.0000 C   0  0  0  0  0  0  0  0  0  0  0  0
    3.0000    2.5981    0.0000 N   0  0  0  0  0  0  0  0  0  0  0  0
    3.7500    3.8971    0.0000 N   0  0  0  0  0  0  0  0  0  0  0  0
    5.2500    3.8971    0.0000 C   0  0  0  0  0  0  0  0  0  0  0  0
    6.0000    2.5981    0.0000 O   0  0  0  0  0  0  0  0  0  0  0  0
    6.0000    5.1962    0.0000 C   0  0  0  0  0  0  0  0  0  0  0  0
    5.3899    6.5665    0.0000 N   0  0  0  0  0  0  0  0  0  0  0  0
    6.5046    7.5702    0.0000 N   0  0  0  0  0  0  0  0  0  0  0  0
    7.8037    6.8202    0.0000 N   0  0  0  0  0  0  0  0  0  0  0  0
    7.4918    5.3529    0.0000 C   0  0  0  0  0  0  0  0  0  0  0  0
    8.4955    4.2382    0.0000 N   0  0  0  0  0  0  0  0  0  0  0  0
    9.9873    4.3950    0.0000 C   0  0  0  0  0  0  0  0  0  0  0  0
   10.5974    3.0247    0.0000 C   0  0  0  0  0  0  0  0  0  0  0  0
    9.4826    2.0210    0.0000 C   0  0  0  0  0  0  0  0  0  0  0  0
    8.1836    2.7710    0.0000 C   0  0  0  0  0  0  0  0  0  0  0  0
    9.1740    7.4303    0.0000 C   0  0  0  0  0  0  0  0  0  0  0  0
    9.4858    8.8975    0.0000 N   0  0  0  0  0  0  0  0  0  0  0  0
   10.9776    9.0543    0.0000 O   0  0  0  0  0  0  0  0  0  0  0  0
   11.5877    7.6840    0.0000 N   0  0  0  0  0  0  0  0  0  0  0  0
   10.4730    6.6803    0.0000 C   0  0  0  0  0  0  0  0  0  0  0  0
   10.6298    5.1885    0.0000 N   0  0  0  0  0  0  0  0  0  0  0  0
  1  2  1  0
  2  3  1  0
  3  4  1  0
  4  5  2  0
  5  6  1  0
  6  7  2  0
  7  8  1  0
  8  9  2  0
  9 10  1  0
 10 11  2  3
 11 12  1  0
 12 13  1  0
 13 14  2  0
 13 15  1  0
 15 16  1  0
 16 17  2  0
 17 18  1  0
 18 19  1  0
 19 20  1  0
 20 21  1  0
 21 22  1  0
 22 23  1  0
 23 24  1  0
 18 25  1  0
 25 26  2  0
 26 27  1  0
 27 28  1  0
 28 29  2  0
 29 30  1  0
  9  4  1  0
 19 15  2  0
 24 20  1  0
 29 25  1  0
M  END
>  <Molecule>  (89) 
CHEMBL1992732

>  <Standard Type>  (89) 
Ki

>  <Standard Relation>  (89) 
>

>  <Standard Value>  (89) 
1584.89

>  <Standard Units>  (89) 
nM

>  <pChEMBL Value>  (89) 
nan

>  <Comment>  (89) 
inactive

>  <Compound Key>  (89) 
SID103905628

>  <Assay>  (89) 
CHEMBL1963742

>  <Assay Description>  (89) 
PUBCHEM_BIOASSAY: Navigating the Kinome. (Class of assay: other) Panel member name: JAK3

>  <BAO Format>  (89) 
assay format

>  <Target>  (89) 
CHEMBL2148

>  <Target Pref. Name>  (89) 
Tyrosine-protein kinase JAK3

>  <Target Organism>  (89) 
Homo sapiens

>  <Target Type>  (89) 
SINGLE PROTEIN

>  <Document>  (89) 
CHEMBL1201862

>  <Source>  (89) 
PubChem BioAssays

>  <Max Phase>  (89) 
0

>  <#Ro5 Violations>  (89) 
1

>  <Molecular Weight>  (89) 
411.43

>  <Ligand Efficiency BEI>  (89) 
nan

>  <Ligand Efficiency LE>  (89) 
nan

>  <Ligand Efficiency LLE>  (89) 
nan

>  <Ligand Efficiency SEI>  (89) 
nan

>  <ALogP>  (89) 
1.0

>  <Assay Organism>  (89) 
nan

>  <Assay Tissue ChEMBL ID>  (89) 
nan

>  <Assay Tissue Name>  (89) 
nan

>  <Assay Cell Type>  (89) 
nan

>  <Assay Subcellular Fraction>  (89) 
nan

>  <Organism Tax ID>  (89) 
9606

>  <BAO Format ID>  (89) 
BAO_0000019

>  <Published Type>  (89) 
nan

>  <Published Relation>  (89) 
nan

>  <Published Value>  (89) 
nan

>  <Published Units>  (89) 
nan

>  <Canonical Smiles>  (89) 
CCOc1ccccc1C=NNC(=O)c2nnn(c2N3CCCC3)c4nonc4N

>  <Data Validity Comment>  (89) 
nan

>  <Document Journal>  (89) 
nan

>  <Document Year>  (89) 
nan

>  <SRC ID>  (89) 
7

>  <UO Units>  (89) 
UO_0000065

>  <Potential Duplicate>  (89) 
False

>  <Class>  (89) 
0

$$$$

     RDKit          2D

 22 24  0  0  0  0  0  0  0  0999 V2000
    6.0000   -0.0000    0.0000 C   0  0  0  0  0  0  0  0  0  0  0  0
    5.2500   -1.2990    0.0000 C   0  0  0  0  0  0  0  0  0  0  0  0
    6.0000   -2.5981    0.0000 C   0  0  0  0  0  0  0  0  0  0  0  0
    3.7500   -1.2990    0.0000 C   0  0  0  0  0  0  0  0  0  0  0  0
    3.0000   -2.5981    0.0000 O   0  0  0  0  0  0  0  0  0  0  0  0
    1.5000   -2.5981    0.0000 N   0  0  0  0  0  0  0  0  0  0  0  0
    0.7500   -1.2990    0.0000 C   0  0  0  0  0  0  0  0  0  0  0  0
    1.5000    0.0000    0.0000 C   0  0  0  0  0  0  0  0  0  0  0  0
    0.7500    1.2990    0.0000 C   0  0  0  0  0  0  0  0  0  0  0  0
   -0.7500    1.2990    0.0000 C   0  0  0  0  0  0  0  0  0  0  0  0
   -1.5000    2.5981    0.0000 Cl  0  0  0  0  0  0  0  0  0  0  0  0
   -1.5000    0.0000    0.0000 C   0  0  0  0  0  0  0  0  0  0  0  0
   -0.7500   -1.2990    0.0000 C   0  0  0  0  0  0  0  0  0  0  0  0
   -1.5000   -2.5981    0.0000 C   0  0  0  0  0  0  0  0  0  0  0  0
   -3.0000   -2.5981    0.0000 O   0  0  0  0  0  0  0  0  0  0  0  0
   -0.7500   -3.8971    0.0000 C   0  0  0  0  0  0  0  0  0  0  0  0
   -1.2135   -5.3237    0.0000 C   0  0  0  0  0  0  0  0  0  0  0  0
   -2.6401   -5.7872    0.0000 C   0  0  0  0  0  0  0  0  0  0  0  0
   -0.0000   -6.2054    0.0000 N   0  0  0  0  0  0  0  0  0  0  0  0
    1.2135   -5.3237    0.0000 N   0  0  0  0  0  0  0  0  0  0  0  0
    2.6401   -5.7872    0.0000 C   0  0  0  0  0  0  0  0  0  0  0  0
    0.7500   -3.8971    0.0000 C   0  0  0  0  0  0  0  0  0  0  0  0
  1  2  1  0
  2  3  1  0
  2  4  1  0
  4  5  1  0
  5  6  1  0
  6  7  1  0
  7  8  2  0
  8  9  1  0
  9 10  2  0
 10 11  1  0
 10 12  1  0
 12 13  2  0
 13 14  1  0
 14 15  2  0
 14 16  1  0
 16 17  1  0
 17 18  1  0
 17 19  2  0
 19 20  1  0
 20 21  1  0
 20 22  1  0
 22  6  1  0
 13  7  1  0
 22 16  2  0
M  END
>  <Molecule>  (90) 
CHEMBL1977814

>  <Standard Type>  (90) 
Ki

>  <Standard Relation>  (90) 
>

>  <Standard Value>  (90) 
3162.28

>  <Standard Units>  (90) 
nM

>  <pChEMBL Value>  (90) 
nan

>  <Comment>  (90) 
inactive

>  <Compound Key>  (90) 
SID103905544

>  <Assay>  (90) 
CHEMBL1963742

>  <Assay Description>  (90) 
PUBCHEM_BIOASSAY: Navigating the Kinome. (Class of assay: other) Panel member name: JAK3

>  <BAO Format>  (90) 
assay format

>  <Target>  (90) 
CHEMBL2148

>  <Target Pref. Name>  (90) 
Tyrosine-protein kinase JAK3

>  <Target Organism>  (90) 
Homo sapiens

>  <Target Type>  (90) 
SINGLE PROTEIN

>  <Document>  (90) 
CHEMBL1201862

>  <Source>  (90) 
PubChem BioAssays

>  <Max Phase>  (90) 
0

>  <#Ro5 Violations>  (90) 
0

>  <Molecular Weight>  (90) 
319.79

>  <Ligand Efficiency BEI>  (90) 
nan

>  <Ligand Efficiency LE>  (90) 
nan

>  <Ligand Efficiency LLE>  (90) 
nan

>  <Ligand Efficiency SEI>  (90) 
nan

>  <ALogP>  (90) 
2.93

>  <Assay Organism>  (90) 
nan

>  <Assay Tissue ChEMBL ID>  (90) 
nan

>  <Assay Tissue Name>  (90) 
nan

>  <Assay Cell Type>  (90) 
nan

>  <Assay Subcellular Fraction>  (90) 
nan

>  <Organism Tax ID>  (90) 
9606

>  <BAO Format ID>  (90) 
BAO_0000019

>  <Published Type>  (90) 
nan

>  <Published Relation>  (90) 
nan

>  <Published Value>  (90) 
nan

>  <Published Units>  (90) 
nan

>  <Canonical Smiles>  (90) 
CC(C)CON1c2ccc(Cl)cc2C(=O)c3c(C)nn(C)c13

>  <Data Validity Comment>  (90) 
nan

>  <Document Journal>  (90) 
nan

>  <Document Year>  (90) 
nan

>  <SRC ID>  (90) 
7

>  <UO Units>  (90) 
UO_0000065

>  <Potential Duplicate>  (90) 
False

>  <Class>  (90) 
0

$$$$

     RDKit          2D

 21 23  0  0  0  0  0  0  0  0999 V2000
   -7.8997   12.1775    0.0000 Br  0  0  0  0  0  0  0  0  0  0  0  0
   -6.7850   11.1738    0.0000 C   0  0  0  0  0  0  0  0  0  0  0  0
   -5.3584   11.6374    0.0000 C   0  0  0  0  0  0  0  0  0  0  0  0
   -4.2437   10.6337    0.0000 C   0  0  0  0  0  0  0  0  0  0  0  0
   -4.5556    9.1664    0.0000 C   0  0  0  0  0  0  0  0  0  0  0  0
   -3.4408    8.1628    0.0000 C   0  0  0  0  0  0  0  0  0  0  0  0
   -3.7527    6.6955    0.0000 N   0  0  0  0  0  0  0  0  0  0  0  0
   -2.6380    5.6918    0.0000 C   0  0  0  0  0  0  0  0  0  0  0  0
   -1.2114    6.1554    0.0000 O   0  0  0  0  0  0  0  0  0  0  0  0
   -2.9499    4.2246    0.0000 N   0  0  0  0  0  0  0  0  0  0  0  0
   -1.8351    3.2209    0.0000 C   0  0  0  0  0  0  0  0  0  0  0  0
   -0.4086    3.6844    0.0000 C   0  0  0  0  0  0  0  0  0  0  0  0
    0.7062    2.6807    0.0000 C   0  0  0  0  0  0  0  0  0  0  0  0
    0.3943    1.2135    0.0000 C   0  0  0  0  0  0  0  0  0  0  0  0
    1.2760    0.0000    0.0000 N   0  0  0  0  0  0  0  0  0  0  0  0
    0.3943   -1.2135    0.0000 N   0  0  0  0  0  0  0  0  0  0  0  0
   -1.0323   -0.7500    0.0000 C   0  0  0  0  0  0  0  0  0  0  0  0
   -1.0323    0.7500    0.0000 C   0  0  0  0  0  0  0  0  0  0  0  0
   -2.1470    1.7537    0.0000 C   0  0  0  0  0  0  0  0  0  0  0  0
   -5.9821    8.7029    0.0000 C   0  0  0  0  0  0  0  0  0  0  0  0
   -7.0969    9.7066    0.0000 C   0  0  0  0  0  0  0  0  0  0  0  0
  1  2  1  0
  2  3  2  0
  3  4  1  0
  4  5  2  0
  5  6  1  0
  6  7  1  0
  7  8  1  0
  8  9  2  0
  8 10  1  0
 10 11  1  0
 11 12  2  0
 12 13  1  0
 13 14  2  0
 14 15  1  0
 15 16  1  0
 16 17  2  0
 17 18  1  0
 18 19  2  0
  5 20  1  0
 20 21  2  0
 21  2  1  0
 19 11  1  0
 18 14  1  0
M  END
>  <Molecule>  (91) 
CHEMBL1970709

>  <Standard Type>  (91) 
Ki

>  <Standard Relation>  (91) 
>

>  <Standard Value>  (91) 
1584.89

>  <Standard Units>  (91) 
nM

>  <pChEMBL Value>  (91) 
nan

>  <Comment>  (91) 
inactive

>  <Compound Key>  (91) 
SID103904666

>  <Assay>  (91) 
CHEMBL1963742

>  <Assay Description>  (91) 
PUBCHEM_BIOASSAY: Navigating the Kinome. (Class of assay: other) Panel member name: JAK3

>  <BAO Format>  (91) 
assay format

>  <Target>  (91) 
CHEMBL2148

>  <Target Pref. Name>  (91) 
Tyrosine-protein kinase JAK3

>  <Target Organism>  (91) 
Homo sapiens

>  <Target Type>  (91) 
SINGLE PROTEIN

>  <Document>  (91) 
CHEMBL1201862

>  <Source>  (91) 
PubChem BioAssays

>  <Max Phase>  (91) 
0

>  <#Ro5 Violations>  (91) 
0

>  <Molecular Weight>  (91) 
345.2

>  <Ligand Efficiency BEI>  (91) 
nan

>  <Ligand Efficiency LE>  (91) 
nan

>  <Ligand Efficiency LLE>  (91) 
nan

>  <Ligand Efficiency SEI>  (91) 
nan

>  <ALogP>  (91) 
3.65

>  <Assay Organism>  (91) 
nan

>  <Assay Tissue ChEMBL ID>  (91) 
nan

>  <Assay Tissue Name>  (91) 
nan

>  <Assay Cell Type>  (91) 
nan

>  <Assay Subcellular Fraction>  (91) 
nan

>  <Organism Tax ID>  (91) 
9606

>  <BAO Format ID>  (91) 
BAO_0000019

>  <Published Type>  (91) 
nan

>  <Published Relation>  (91) 
nan

>  <Published Value>  (91) 
nan

>  <Published Units>  (91) 
nan

>  <Canonical Smiles>  (91) 
Brc1ccc(CNC(=O)Nc2ccc3[nH]ncc3c2)cc1

>  <Data Validity Comment>  (91) 
nan

>  <Document Journal>  (91) 
nan

>  <Document Year>  (91) 
nan

>  <SRC ID>  (91) 
7

>  <UO Units>  (91) 
UO_0000065

>  <Potential Duplicate>  (91) 
False

>  <Class>  (91) 
0

$$$$

     RDKit          2D

 30 33  0  0  0  0  0  0  0  0999 V2000
   -2.6401   -3.1891    0.0000 N   0  0  0  0  0  0  0  0  0  0  0  0
   -1.2135   -2.7256    0.0000 C   0  0  0  0  0  0  0  0  0  0  0  0
   -0.0000   -3.6073    0.0000 N   0  0  0  0  0  0  0  0  0  0  0  0
    1.2135   -2.7256    0.0000 N   0  0  0  0  0  0  0  0  0  0  0  0
    0.7500   -1.2990    0.0000 C   0  0  0  0  0  0  0  0  0  0  0  0
    1.5000    0.0000    0.0000 C   0  0  0  0  0  0  0  0  0  0  0  0
    0.7500    1.2990    0.0000 C   0  0  0  0  0  0  0  0  0  0  0  0
   -0.7500    1.2990    0.0000 C   0  0  0  0  0  0  0  0  0  0  0  0
   -1.5000    0.0000    0.0000 C   0  0  0  0  0  0  0  0  0  0  0  0
   -3.0000    0.0000    0.0000 C   0  0  0  0  0  0  0  0  0  0  0  0
   -3.7500    1.2990    0.0000 C   0  0  0  0  0  0  0  0  0  0  0  0
   -5.2500    1.2990    0.0000 C   0  0  0  0  0  0  0  0  0  0  0  0
   -6.0000    0.0000    0.0000 C   0  0  0  0  0  0  0  0  0  0  0  0
   -7.5000    0.0000    0.0000 N   0  0  0  0  0  0  0  0  0  0  0  0
   -8.2500    1.2990    0.0000 C   0  0  0  0  0  0  0  0  0  0  0  0
   -7.5000    2.5981    0.0000 O   0  0  0  0  0  0  0  0  0  0  0  0
   -9.7500    1.2990    0.0000 N   0  0  0  0  0  0  0  0  0  0  0  0
  -10.5000    2.5981    0.0000 C   0  0  0  0  0  0  0  0  0  0  0  0
   -9.7500    3.8971    0.0000 C   0  0  0  0  0  0  0  0  0  0  0  0
  -10.5000    5.1962    0.0000 C   0  0  0  0  0  0  0  0  0  0  0  0
  -12.0000    5.1962    0.0000 C   0  0  0  0  0  0  0  0  0  0  0  0
  -12.7500    3.8971    0.0000 C   0  0  0  0  0  0  0  0  0  0  0  0
  -12.0000    2.5981    0.0000 C   0  0  0  0  0  0  0  0  0  0  0  0
  -12.7500    1.2990    0.0000 F   0  0  0  0  0  0  0  0  0  0  0  0
   -9.7500    6.4952    0.0000 C   0  0  0  0  0  0  0  0  0  0  0  0
  -10.5000    7.7942    0.0000 O   0  0  0  0  0  0  0  0  0  0  0  0
   -8.2500    6.4952    0.0000 O   0  0  0  0  0  0  0  0  0  0  0  0
   -5.2500   -1.2990    0.0000 C   0  0  0  0  0  0  0  0  0  0  0  0
   -3.7500   -1.2990    0.0000 C   0  0  0  0  0  0  0  0  0  0  0  0
   -0.7500   -1.2990    0.0000 C   0  0  0  0  0  0  0  0  0  0  0  0
  1  2  1  0
  2  3  2  0
  3  4  1  0
  4  5  1  0
  5  6  2  0
  6  7  1  0
  7  8  2  0
  8  9  1  0
  9 10  1  0
 10 11  2  0
 11 12  1  0
 12 13  2  0
 13 14  1  0
 14 15  1  0
 15 16  2  0
 15 17  1  0
 17 18  1  0
 18 19  2  0
 19 20  1  0
 20 21  2  0
 21 22  1  0
 22 23  2  0
 23 24  1  0
 20 25  1  0
 25 26  2  0
 25 27  1  0
 13 28  1  0
 28 29  2  0
  9 30  2  0
 30  2  1  0
 30  5  1  0
 29 10  1  0
 23 18  1  0
M  END
>  <Molecule>  (92) 
CHEMBL1993722

>  <Standard Type>  (92) 
Ki

>  <Standard Relation>  (92) 
=

>  <Standard Value>  (92) 
1584.89

>  <Standard Units>  (92) 
nM

>  <pChEMBL Value>  (92) 
5.8

>  <Comment>  (92) 
active

>  <Compound Key>  (92) 
SID103904859

>  <Assay>  (92) 
CHEMBL1963742

>  <Assay Description>  (92) 
PUBCHEM_BIOASSAY: Navigating the Kinome. (Class of assay: other) Panel member name: JAK3

>  <BAO Format>  (92) 
assay format

>  <Target>  (92) 
CHEMBL2148

>  <Target Pref. Name>  (92) 
Tyrosine-protein kinase JAK3

>  <Target Organism>  (92) 
Homo sapiens

>  <Target Type>  (92) 
SINGLE PROTEIN

>  <Document>  (92) 
CHEMBL1201862

>  <Source>  (92) 
PubChem BioAssays

>  <Max Phase>  (92) 
0

>  <#Ro5 Violations>  (92) 
0

>  <Molecular Weight>  (92) 
405.39

>  <Ligand Efficiency BEI>  (92) 
nan

>  <Ligand Efficiency LE>  (92) 
nan

>  <Ligand Efficiency LLE>  (92) 
nan

>  <Ligand Efficiency SEI>  (92) 
nan

>  <ALogP>  (92) 
4.29

>  <Assay Organism>  (92) 
nan

>  <Assay Tissue ChEMBL ID>  (92) 
nan

>  <Assay Tissue Name>  (92) 
nan

>  <Assay Cell Type>  (92) 
nan

>  <Assay Subcellular Fraction>  (92) 
nan

>  <Organism Tax ID>  (92) 
9606

>  <BAO Format ID>  (92) 
BAO_0000019

>  <Published Type>  (92) 
nan

>  <Published Relation>  (92) 
nan

>  <Published Value>  (92) 
nan

>  <Published Units>  (92) 
nan

>  <Canonical Smiles>  (92) 
Nc1n[nH]c2cccc(c3ccc(NC(=O)Nc4cc(ccc4F)C(=O)O)cc3)c12

>  <Data Validity Comment>  (92) 
nan

>  <Document Journal>  (92) 
nan

>  <Document Year>  (92) 
nan

>  <SRC ID>  (92) 
7

>  <UO Units>  (92) 
UO_0000065

>  <Potential Duplicate>  (92) 
False

>  <Class>  (92) 
1

$$$$

     RDKit          2D

 39 42  0  0  0  0  0  0  0  0999 V2000
    2.9499   -7.0111    0.0000 C   0  0  0  0  0  0  0  0  0  0  0  0
    1.4827   -6.6992    0.0000 C   0  0  0  0  0  0  0  0  0  0  0  0
    0.4790   -7.8139    0.0000 C   0  0  0  0  0  0  0  0  0  0  0  0
    1.0192   -5.2726    0.0000 N   0  0  0  0  0  0  0  0  0  0  0  0
    2.0229   -4.1579    0.0000 C   0  0  0  0  0  0  0  0  0  0  0  0
    3.4901   -4.4698    0.0000 C   0  0  0  0  0  0  0  0  0  0  0  0
    4.4938   -3.3551    0.0000 C   0  0  0  0  0  0  0  0  0  0  0  0
    5.9610   -3.6669    0.0000 N   0  0  0  0  0  0  0  0  0  0  0  0
   -0.4481   -4.9608    0.0000 C   0  0  0  0  0  0  0  0  0  0  0  0
   -0.9116   -3.5342    0.0000 O   0  0  0  0  0  0  0  0  0  0  0  0
   -1.4518   -6.0755    0.0000 C   0  0  0  0  0  0  0  0  0  0  0  0
   -0.9882   -7.5021    0.0000 C   0  0  0  0  0  0  0  0  0  0  0  0
   -1.9919   -8.6168    0.0000 C   0  0  0  0  0  0  0  0  0  0  0  0
   -3.4591   -8.3049    0.0000 C   0  0  0  0  0  0  0  0  0  0  0  0
   -3.9227   -6.8783    0.0000 C   0  0  0  0  0  0  0  0  0  0  0  0
   -2.9190   -5.7636    0.0000 C   0  0  0  0  0  0  0  0  0  0  0  0
   -5.3899   -6.5665    0.0000 N   0  0  0  0  0  0  0  0  0  0  0  0
   -6.5046   -7.5702    0.0000 N   0  0  0  0  0  0  0  0  0  0  0  0
   -7.8037   -6.8202    0.0000 C   0  0  0  0  0  0  0  0  0  0  0  0
   -7.4918   -5.3529    0.0000 C   0  0  0  0  0  0  0  0  0  0  0  0
   -6.0000   -5.1962    0.0000 C   0  0  0  0  0  0  0  0  0  0  0  0
   -5.2500   -3.8971    0.0000 N   0  0  0  0  0  0  0  0  0  0  0  0
   -6.0000   -2.5981    0.0000 C   0  0  0  0  0  0  0  0  0  0  0  0
   -7.5000   -2.5981    0.0000 O   0  0  0  0  0  0  0  0  0  0  0  0
   -5.2500   -1.2990    0.0000 N   0  0  0  0  0  0  0  0  0  0  0  0
   -6.0000    0.0000    0.0000 C   0  0  0  0  0  0  0  0  0  0  0  0
   -7.5000    0.0000    0.0000 C   0  0  0  0  0  0  0  0  0  0  0  0
   -8.2500    1.2990    0.0000 C   0  0  0  0  0  0  0  0  0  0  0  0
   -7.5000    2.5981    0.0000 C   0  0  0  0  0  0  0  0  0  0  0  0
   -6.0000    2.5981    0.0000 C   0  0  0  0  0  0  0  0  0  0  0  0
   -5.2500    3.8971    0.0000 C   0  0  0  0  0  0  0  0  0  0  0  0
   -3.7500    3.8971    0.0000 C   0  0  0  0  0  0  0  0  0  0  0  0
   -3.0000    2.5981    0.0000 C   0  0  0  0  0  0  0  0  0  0  0  0
   -3.7500    1.2990    0.0000 C   0  0  0  0  0  0  0  0  0  0  0  0
   -5.2500    1.2990    0.0000 C   0  0  0  0  0  0  0  0  0  0  0  0
   -9.1740   -7.4303    0.0000 C   0  0  0  0  0  0  0  0  0  0  0  0
   -9.7841   -6.0600    0.0000 C   0  0  0  0  0  0  0  0  0  0  0  0
   -8.5639   -8.8006    0.0000 C   0  0  0  0  0  0  0  0  0  0  0  0
  -10.5443   -8.0404    0.0000 C   0  0  0  0  0  0  0  0  0  0  0  0
  1  2  1  0
  2  3  1  0
  2  4  1  0
  4  5  1  0
  5  6  1  0
  6  7  1  0
  7  8  1  0
  4  9  1  0
  9 10  2  0
  9 11  1  0
 11 12  2  0
 12 13  1  0
 13 14  2  0
 14 15  1  0
 15 16  2  0
 15 17  1  0
 17 18  1  0
 18 19  2  0
 19 20  1  0
 20 21  2  0
 21 22  1  0
 22 23  1  0
 23 24  2  0
 23 25  1  0
 25 26  1  0
 26 27  2  0
 27 28  1  0
 28 29  2  0
 29 30  1  0
 30 31  2  0
 31 32  1  0
 32 33  2  0
 33 34  1  0
 34 35  2  0
 19 36  1  0
 36 37  1  0
 36 38  1  0
 36 39  1  0
 16 11  1  0
 21 17  1  0
 35 26  1  0
 35 30  1  0
M  END
>  <Molecule>  (93) 
CHEMBL1994318

>  <Standard Type>  (93) 
Ki

>  <Standard Relation>  (93) 
>

>  <Standard Value>  (93) 
5011.87

>  <Standard Units>  (93) 
nM

>  <pChEMBL Value>  (93) 
nan

>  <Comment>  (93) 
inactive

>  <Compound Key>  (93) 
SID103904830

>  <Assay>  (93) 
CHEMBL1963742

>  <Assay Description>  (93) 
PUBCHEM_BIOASSAY: Navigating the Kinome. (Class of assay: other) Panel member name: JAK3

>  <BAO Format>  (93) 
assay format

>  <Target>  (93) 
CHEMBL2148

>  <Target Pref. Name>  (93) 
Tyrosine-protein kinase JAK3

>  <Target Organism>  (93) 
Homo sapiens

>  <Target Type>  (93) 
SINGLE PROTEIN

>  <Document>  (93) 
CHEMBL1201862

>  <Source>  (93) 
PubChem BioAssays

>  <Max Phase>  (93) 
0

>  <#Ro5 Violations>  (93) 
2

>  <Molecular Weight>  (93) 
526.69

>  <Ligand Efficiency BEI>  (93) 
nan

>  <Ligand Efficiency LE>  (93) 
nan

>  <Ligand Efficiency LLE>  (93) 
nan

>  <Ligand Efficiency SEI>  (93) 
nan

>  <ALogP>  (93) 
6.17

>  <Assay Organism>  (93) 
nan

>  <Assay Tissue ChEMBL ID>  (93) 
nan

>  <Assay Tissue Name>  (93) 
nan

>  <Assay Cell Type>  (93) 
nan

>  <Assay Subcellular Fraction>  (93) 
nan

>  <Organism Tax ID>  (93) 
9606

>  <BAO Format ID>  (93) 
BAO_0000019

>  <Published Type>  (93) 
nan

>  <Published Relation>  (93) 
nan

>  <Published Value>  (93) 
nan

>  <Published Units>  (93) 
nan

>  <Canonical Smiles>  (93) 
CC(C)N(CCCN)C(=O)c1cccc(c1)n2nc(cc2NC(=O)Nc3cccc4ccccc34)C(C)(C)C

>  <Data Validity Comment>  (93) 
nan

>  <Document Journal>  (93) 
nan

>  <Document Year>  (93) 
nan

>  <SRC ID>  (93) 
7

>  <UO Units>  (93) 
UO_0000065

>  <Potential Duplicate>  (93) 
False

>  <Class>  (93) 
0

$$$$

     RDKit          2D

 28 30  0  0  0  0  0  0  0  0999 V2000
    5.2500   -1.2990    0.0000 F   0  0  0  0  0  0  0  0  0  0  0  0
    3.7500   -1.2990    0.0000 C   0  0  0  0  0  0  0  0  0  0  0  0
    3.0000   -2.5981    0.0000 F   0  0  0  0  0  0  0  0  0  0  0  0
    3.0000    0.0000    0.0000 O   0  0  0  0  0  0  0  0  0  0  0  0
    1.5000    0.0000    0.0000 C   0  0  0  0  0  0  0  0  0  0  0  0
    0.7500   -1.2990    0.0000 C   0  0  0  0  0  0  0  0  0  0  0  0
   -0.7500   -1.2990    0.0000 C   0  0  0  0  0  0  0  0  0  0  0  0
   -1.5000    0.0000    0.0000 C   0  0  0  0  0  0  0  0  0  0  0  0
   -3.0000    0.0000    0.0000 C   0  0  0  0  0  0  0  0  0  0  0  0
   -3.7500   -1.2990    0.0000 N   0  0  0  0  0  0  0  0  0  0  0  0
   -5.2500   -1.2990    0.0000 C   0  0  0  0  0  0  0  0  0  0  0  0
   -6.0000    0.0000    0.0000 O   0  0  0  0  0  0  0  0  0  0  0  0
   -6.0000   -2.5981    0.0000 N   0  0  0  0  0  0  0  0  0  0  0  0
   -7.5000   -2.5981    0.0000 C   0  0  0  0  0  0  0  0  0  0  0  0
   -8.2500   -1.2990    0.0000 C   0  0  0  0  0  0  0  0  0  0  0  0
   -9.7500   -1.2990    0.0000 C   0  0  0  0  0  0  0  0  0  0  0  0
  -10.5000   -2.5981    0.0000 C   0  0  0  0  0  0  0  0  0  0  0  0
   -9.7500   -3.8971    0.0000 C   0  0  0  0  0  0  0  0  0  0  0  0
   -8.2500   -3.8971    0.0000 N   0  0  0  0  0  0  0  0  0  0  0  0
  -10.5000   -5.1962    0.0000 C   0  0  0  0  0  0  0  0  0  0  0  0
  -11.2500   -6.4952    0.0000 F   0  0  0  0  0  0  0  0  0  0  0  0
  -11.7990   -4.4462    0.0000 F   0  0  0  0  0  0  0  0  0  0  0  0
   -9.2010   -5.9462    0.0000 F   0  0  0  0  0  0  0  0  0  0  0  0
   -3.7500    1.2990    0.0000 C   0  0  0  0  0  0  0  0  0  0  0  0
   -3.0000    2.5981    0.0000 C   0  0  0  0  0  0  0  0  0  0  0  0
   -1.5000    2.5981    0.0000 N   0  0  0  0  0  0  0  0  0  0  0  0
   -0.7500    1.2990    0.0000 C   0  0  0  0  0  0  0  0  0  0  0  0
    0.7500    1.2990    0.0000 C   0  0  0  0  0  0  0  0  0  0  0  0
  1  2  1  0
  2  3  1  0
  2  4  1  0
  4  5  1  0
  5  6  2  0
  6  7  1  0
  7  8  2  0
  8  9  1  0
  9 10  1  0
 10 11  1  0
 11 12  2  0
 11 13  1  0
 13 14  1  0
 14 15  2  0
 15 16  1  0
 16 17  2  0
 17 18  1  0
 18 19  2  0
 18 20  1  0
 20 21  1  0
 20 22  1  0
 20 23  1  0
  9 24  2  0
 24 25  1  0
 25 26  2  0
 26 27  1  0
 27 28  2  0
 28  5  1  0
 27  8  1  0
 19 14  1  0
M  END
>  <Molecule>  (94) 
CHEMBL1981215

>  <Standard Type>  (94) 
Ki

>  <Standard Relation>  (94) 
>

>  <Standard Value>  (94) 
5011.87

>  <Standard Units>  (94) 
nM

>  <pChEMBL Value>  (94) 
nan

>  <Comment>  (94) 
inactive

>  <Compound Key>  (94) 
SID103904877

>  <Assay>  (94) 
CHEMBL1963742

>  <Assay Description>  (94) 
PUBCHEM_BIOASSAY: Navigating the Kinome. (Class of assay: other) Panel member name: JAK3

>  <BAO Format>  (94) 
assay format

>  <Target>  (94) 
CHEMBL2148

>  <Target Pref. Name>  (94) 
Tyrosine-protein kinase JAK3

>  <Target Organism>  (94) 
Homo sapiens

>  <Target Type>  (94) 
SINGLE PROTEIN

>  <Document>  (94) 
CHEMBL1201862

>  <Source>  (94) 
PubChem BioAssays

>  <Max Phase>  (94) 
0

>  <#Ro5 Violations>  (94) 
0

>  <Molecular Weight>  (94) 
398.29

>  <Ligand Efficiency BEI>  (94) 
nan

>  <Ligand Efficiency LE>  (94) 
nan

>  <Ligand Efficiency LLE>  (94) 
nan

>  <Ligand Efficiency SEI>  (94) 
nan

>  <ALogP>  (94) 
4.89

>  <Assay Organism>  (94) 
nan

>  <Assay Tissue ChEMBL ID>  (94) 
nan

>  <Assay Tissue Name>  (94) 
nan

>  <Assay Cell Type>  (94) 
nan

>  <Assay Subcellular Fraction>  (94) 
nan

>  <Organism Tax ID>  (94) 
9606

>  <BAO Format ID>  (94) 
BAO_0000019

>  <Published Type>  (94) 
nan

>  <Published Relation>  (94) 
nan

>  <Published Value>  (94) 
nan

>  <Published Units>  (94) 
nan

>  <Canonical Smiles>  (94) 
FC(F)Oc1ccc2c(NC(=O)Nc3cccc(n3)C(F)(F)F)ccnc2c1

>  <Data Validity Comment>  (94) 
nan

>  <Document Journal>  (94) 
nan

>  <Document Year>  (94) 
nan

>  <SRC ID>  (94) 
7

>  <UO Units>  (94) 
UO_0000065

>  <Potential Duplicate>  (94) 
False

>  <Class>  (94) 
0

$$$$

     RDKit          2D

 27 30  0  0  0  0  0  0  0  0999 V2000
    3.7500   -1.2990    0.0000 C   0  0  0  0  0  0  0  0  0  0  0  0
    3.0000    0.0000    0.0000 O   0  0  0  0  0  0  0  0  0  0  0  0
    1.5000    0.0000    0.0000 C   0  0  0  0  0  0  0  0  0  0  0  0
    0.7500   -1.2990    0.0000 N   0  0  0  0  0  0  0  0  0  0  0  0
   -0.7500   -1.2990    0.0000 C   0  0  0  0  0  0  0  0  0  0  0  0
   -1.5000    0.0000    0.0000 C   0  0  0  0  0  0  0  0  0  0  0  0
   -0.7500    1.2990    0.0000 C   0  0  0  0  0  0  0  0  0  0  0  0
    0.7500    1.2990    0.0000 N   0  0  0  0  0  0  0  0  0  0  0  0
   -1.5000    2.5981    0.0000 C   0  0  0  0  0  0  0  0  0  0  0  0
   -2.9918    2.7549    0.0000 C   0  0  0  0  0  0  0  0  0  0  0  0
   -3.3037    4.2221    0.0000 N   0  0  0  0  0  0  0  0  0  0  0  0
   -2.0046    4.9721    0.0000 C   0  0  0  0  0  0  0  0  0  0  0  0
   -0.8899    3.9684    0.0000 N   0  0  0  0  0  0  0  0  0  0  0  0
    0.5773    4.2803    0.0000 C   0  0  0  0  0  0  0  0  0  0  0  0
    1.5810    3.1655    0.0000 C   0  0  0  0  0  0  0  0  0  0  0  0
    3.0482    3.4774    0.0000 C   0  0  0  0  0  0  0  0  0  0  0  0
    3.5118    4.9040    0.0000 C   0  0  0  0  0  0  0  0  0  0  0  0
    4.9790    5.2159    0.0000 O   0  0  0  0  0  0  0  0  0  0  0  0
    2.5081    6.0187    0.0000 C   0  0  0  0  0  0  0  0  0  0  0  0
    1.0409    5.7068    0.0000 C   0  0  0  0  0  0  0  0  0  0  0  0
   -3.9955    1.6402    0.0000 C   0  0  0  0  0  0  0  0  0  0  0  0
   -5.4627    1.9520    0.0000 C   0  0  0  0  0  0  0  0  0  0  0  0
   -6.4664    0.8373    0.0000 C   0  0  0  0  0  0  0  0  0  0  0  0
   -6.0029   -0.5893    0.0000 C   0  0  0  0  0  0  0  0  0  0  0  0
   -7.0066   -1.7040    0.0000 F   0  0  0  0  0  0  0  0  0  0  0  0
   -4.5356   -0.9012    0.0000 C   0  0  0  0  0  0  0  0  0  0  0  0
   -3.5320    0.2136    0.0000 C   0  0  0  0  0  0  0  0  0  0  0  0
  1  2  1  0
  2  3  1  0
  3  4  2  0
  4  5  1  0
  5  6  2  0
  6  7  1  0
  7  8  2  0
  7  9  1  0
  9 10  2  0
 10 11  1  0
 11 12  2  0
 12 13  1  0
 13 14  1  0
 14 15  1  0
 15 16  1  0
 16 17  1  0
 17 18  1  0
 17 19  1  0
 19 20  1  0
 10 21  1  0
 21 22  2  0
 22 23  1  0
 23 24  2  0
 24 25  1  0
 24 26  1  0
 26 27  2  0
  8  3  1  0
 13  9  1  0
 20 14  1  0
 27 21  1  0
M  END
>  <Molecule>  (95) 
CHEMBL256835

>  <Standard Type>  (95) 
Ki

>  <Standard Relation>  (95) 
>

>  <Standard Value>  (95) 
1584.89

>  <Standard Units>  (95) 
nM

>  <pChEMBL Value>  (95) 
nan

>  <Comment>  (95) 
inactive

>  <Compound Key>  (95) 
SID103905255

>  <Assay>  (95) 
CHEMBL1963742

>  <Assay Description>  (95) 
PUBCHEM_BIOASSAY: Navigating the Kinome. (Class of assay: other) Panel member name: JAK3

>  <BAO Format>  (95) 
assay format

>  <Target>  (95) 
CHEMBL2148

>  <Target Pref. Name>  (95) 
Tyrosine-protein kinase JAK3

>  <Target Organism>  (95) 
Homo sapiens

>  <Target Type>  (95) 
SINGLE PROTEIN

>  <Document>  (95) 
CHEMBL1201862

>  <Source>  (95) 
PubChem BioAssays

>  <Max Phase>  (95) 
0

>  <#Ro5 Violations>  (95) 
0

>  <Molecular Weight>  (95) 
368.41

>  <Ligand Efficiency BEI>  (95) 
nan

>  <Ligand Efficiency LE>  (95) 
nan

>  <Ligand Efficiency LLE>  (95) 
nan

>  <Ligand Efficiency SEI>  (95) 
nan

>  <ALogP>  (95) 
3.63

>  <Assay Organism>  (95) 
nan

>  <Assay Tissue ChEMBL ID>  (95) 
nan

>  <Assay Tissue Name>  (95) 
nan

>  <Assay Cell Type>  (95) 
nan

>  <Assay Subcellular Fraction>  (95) 
nan

>  <Organism Tax ID>  (95) 
9606

>  <BAO Format ID>  (95) 
BAO_0000019

>  <Published Type>  (95) 
nan

>  <Published Relation>  (95) 
nan

>  <Published Value>  (95) 
nan

>  <Published Units>  (95) 
nan

>  <Canonical Smiles>  (95) 
COc1nccc(n1)c2c(ncn2C3CCC(O)CC3)c4ccc(F)cc4

>  <Data Validity Comment>  (95) 
nan

>  <Document Journal>  (95) 
nan

>  <Document Year>  (95) 
nan

>  <SRC ID>  (95) 
7

>  <UO Units>  (95) 
UO_0000065

>  <Potential Duplicate>  (95) 
False

>  <Class>  (95) 
0

$$$$

     RDKit          2D

 29 31  0  0  0  0  0  0  0  0999 V2000
    3.7500   -1.2990    0.0000 C   0  0  0  0  0  0  0  0  0  0  0  0
    3.0000    0.0000    0.0000 S   0  0  0  0  0  0  0  0  0  0  0  0
    1.5000    0.0000    0.0000 C   0  0  0  0  0  0  0  0  0  0  0  0
    0.7500   -1.2990    0.0000 C   0  0  0  0  0  0  0  0  0  0  0  0
   -0.7500   -1.2990    0.0000 C   0  0  0  0  0  0  0  0  0  0  0  0
   -1.5000    0.0000    0.0000 C   0  0  0  0  0  0  0  0  0  0  0  0
   -0.7500    1.2990    0.0000 C   0  0  0  0  0  0  0  0  0  0  0  0
    0.7500    1.2990    0.0000 C   0  0  0  0  0  0  0  0  0  0  0  0
    1.5000    2.5981    0.0000 C   0  0  0  0  0  0  0  0  0  0  0  0
    3.0000    2.5981    0.0000 N   0  0  0  0  0  0  0  0  0  0  0  0
    3.7500    3.8971    0.0000 C   0  0  0  0  0  0  0  0  0  0  0  0
    5.2500    3.8971    0.0000 N   0  0  0  0  0  0  0  0  0  0  0  0
    6.0000    5.1962    0.0000 C   0  0  0  0  0  0  0  0  0  0  0  0
    5.2500    6.4952    0.0000 C   0  0  0  0  0  0  0  0  0  0  0  0
    3.7500    6.4952    0.0000 C   0  0  0  0  0  0  0  0  0  0  0  0
    3.0000    7.7942    0.0000 N   0  0  0  0  0  0  0  0  0  0  0  0
    1.5000    7.7942    0.0000 C   0  0  0  0  0  0  0  0  0  0  0  0
    0.7500    9.0933    0.0000 C   0  0  0  0  0  0  0  0  0  0  0  0
    1.5000   10.3923    0.0000 C   0  0  0  0  0  0  0  0  0  0  0  0
    0.7500   11.6913    0.0000 C   0  0  0  0  0  0  0  0  0  0  0  0
   -0.7500   11.6913    0.0000 C   0  0  0  0  0  0  0  0  0  0  0  0
   -1.5000   12.9904    0.0000 C   0  0  0  0  0  0  0  0  0  0  0  0
   -0.7500   14.2894    0.0000 N   0  0  0  0  0  0  0  0  0  0  0  0
   -1.5000   10.3923    0.0000 C   0  0  0  0  0  0  0  0  0  0  0  0
   -0.7500    9.0933    0.0000 C   0  0  0  0  0  0  0  0  0  0  0  0
    3.0000    5.1962    0.0000 N   0  0  0  0  0  0  0  0  0  0  0  0
    6.0000    7.7942    0.0000 N   0  0  0  0  0  0  0  0  0  0  0  0
    5.2500    9.0933    0.0000 O   0  0  0  0  0  0  0  0  0  0  0  0
    7.5000    7.7942    0.0000 O   0  0  0  0  0  0  0  0  0  0  0  0
  1  2  1  0
  2  3  1  0
  3  4  2  0
  4  5  1  0
  5  6  2  0
  6  7  1  0
  7  8  2  0
  8  9  1  0
  9 10  1  0
 10 11  1  0
 11 12  2  0
 12 13  1  0
 13 14  2  0
 14 15  1  0
 15 16  1  0
 16 17  1  0
 17 18  1  0
 18 19  1  0
 19 20  1  0
 20 21  1  0
 21 22  1  0
 22 23  1  0
 21 24  1  0
 24 25  1  0
 15 26  2  0
 14 27  1  0
 27 28  2  0
 27 29  1  0
  8  3  1  0
 26 11  1  0
 25 18  1  0
M  CHG  2  27   1  29  -1
M  END
>  <Molecule>  (96) 
CHEMBL392642

>  <Standard Type>  (96) 
Ki

>  <Standard Relation>  (96) 
>

>  <Standard Value>  (96) 
1584.89

>  <Standard Units>  (96) 
nM

>  <pChEMBL Value>  (96) 
nan

>  <Comment>  (96) 
inactive

>  <Compound Key>  (96) 
SID103905471

>  <Assay>  (96) 
CHEMBL1963742

>  <Assay Description>  (96) 
PUBCHEM_BIOASSAY: Navigating the Kinome. (Class of assay: other) Panel member name: JAK3

>  <BAO Format>  (96) 
assay format

>  <Target>  (96) 
CHEMBL2148

>  <Target Pref. Name>  (96) 
Tyrosine-protein kinase JAK3

>  <Target Organism>  (96) 
Homo sapiens

>  <Target Type>  (96) 
SINGLE PROTEIN

>  <Document>  (96) 
CHEMBL1201862

>  <Source>  (96) 
PubChem BioAssays

>  <Max Phase>  (96) 
0

>  <#Ro5 Violations>  (96) 
0

>  <Molecular Weight>  (96) 
416.55

>  <Ligand Efficiency BEI>  (96) 
nan

>  <Ligand Efficiency LE>  (96) 
nan

>  <Ligand Efficiency LLE>  (96) 
nan

>  <Ligand Efficiency SEI>  (96) 
nan

>  <ALogP>  (96) 
3.9

>  <Assay Organism>  (96) 
nan

>  <Assay Tissue ChEMBL ID>  (96) 
nan

>  <Assay Tissue Name>  (96) 
nan

>  <Assay Cell Type>  (96) 
nan

>  <Assay Subcellular Fraction>  (96) 
nan

>  <Organism Tax ID>  (96) 
9606

>  <BAO Format ID>  (96) 
BAO_0000019

>  <Published Type>  (96) 
nan

>  <Published Relation>  (96) 
nan

>  <Published Value>  (96) 
nan

>  <Published Units>  (96) 
nan

>  <Canonical Smiles>  (96) 
CSc1ccccc1CNc2ncc(c(NCC3CCC(CN)CC3)n2)[N+](=O)[O-]

>  <Data Validity Comment>  (96) 
nan

>  <Document Journal>  (96) 
nan

>  <Document Year>  (96) 
nan

>  <SRC ID>  (96) 
7

>  <UO Units>  (96) 
UO_0000065

>  <Potential Duplicate>  (96) 
False

>  <Class>  (96) 
0

$$$$

     RDKit          2D

 26 29  0  0  0  0  0  0  0  0999 V2000
   -2.5981   -9.6073    0.0000 O   0  0  0  0  0  0  0  0  0  0  0  0
   -2.5981   -8.1073    0.0000 C   0  0  0  0  0  0  0  0  0  0  0  0
   -1.2990   -7.3573    0.0000 C   0  0  0  0  0  0  0  0  0  0  0  0
   -1.2990   -5.8573    0.0000 C   0  0  0  0  0  0  0  0  0  0  0  0
   -0.0000   -5.1073    0.0000 N   0  0  0  0  0  0  0  0  0  0  0  0
   -0.0000   -3.6073    0.0000 C   0  0  0  0  0  0  0  0  0  0  0  0
    1.2135   -2.7256    0.0000 N   0  0  0  0  0  0  0  0  0  0  0  0
    0.7500   -1.2990    0.0000 C   0  0  0  0  0  0  0  0  0  0  0  0
    1.5000    0.0000    0.0000 C   0  0  0  0  0  0  0  0  0  0  0  0
    0.7500    1.2990    0.0000 C   0  0  0  0  0  0  0  0  0  0  0  0
   -0.7500    1.2990    0.0000 C   0  0  0  0  0  0  0  0  0  0  0  0
   -1.5000    0.0000    0.0000 C   0  0  0  0  0  0  0  0  0  0  0  0
   -0.7500   -1.2990    0.0000 C   0  0  0  0  0  0  0  0  0  0  0  0
   -1.2135   -2.7256    0.0000 S   0  0  0  0  0  0  0  0  0  0  0  0
   -1.5000    2.5981    0.0000 C   0  0  0  0  0  0  0  0  0  0  0  0
   -0.7500    3.8971    0.0000 C   0  0  0  0  0  0  0  0  0  0  0  0
   -1.5000    5.1962    0.0000 C   0  0  0  0  0  0  0  0  0  0  0  0
   -3.0000    5.1962    0.0000 N   0  0  0  0  0  0  0  0  0  0  0  0
   -3.7500    3.8971    0.0000 C   0  0  0  0  0  0  0  0  0  0  0  0
   -3.0000    2.5981    0.0000 C   0  0  0  0  0  0  0  0  0  0  0  0
   -2.5981   -5.1073    0.0000 C   0  0  0  0  0  0  0  0  0  0  0  0
   -2.5981   -3.6073    0.0000 C   0  0  0  0  0  0  0  0  0  0  0  0
   -3.8971   -2.8573    0.0000 C   0  0  0  0  0  0  0  0  0  0  0  0
   -5.1962   -3.6073    0.0000 C   0  0  0  0  0  0  0  0  0  0  0  0
   -5.1962   -5.1073    0.0000 C   0  0  0  0  0  0  0  0  0  0  0  0
   -3.8971   -5.8573    0.0000 C   0  0  0  0  0  0  0  0  0  0  0  0
  1  2  1  0
  2  3  1  0
  3  4  1  0
  4  5  1  0
  5  6  1  0
  6  7  2  0
  7  8  1  0
  8  9  2  0
  9 10  1  0
 10 11  2  0
 11 12  1  0
 12 13  2  0
 13 14  1  0
 11 15  1  0
 15 16  2  0
 16 17  1  0
 17 18  2  0
 18 19  1  0
 19 20  2  0
  4 21  1  0
 21 22  2  0
 22 23  1  0
 23 24  2  0
 24 25  1  0
 25 26  2  0
 14  6  1  0
 13  8  1  0
 20 15  1  0
 26 21  1  0
M  END
>  <Molecule>  (97) 
CHEMBL1982122

>  <Standard Type>  (97) 
Ki

>  <Standard Relation>  (97) 
>

>  <Standard Value>  (97) 
1584.89

>  <Standard Units>  (97) 
nM

>  <pChEMBL Value>  (97) 
nan

>  <Comment>  (97) 
inactive

>  <Compound Key>  (97) 
SID103904560

>  <Assay>  (97) 
CHEMBL1963742

>  <Assay Description>  (97) 
PUBCHEM_BIOASSAY: Navigating the Kinome. (Class of assay: other) Panel member name: JAK3

>  <BAO Format>  (97) 
assay format

>  <Target>  (97) 
CHEMBL2148

>  <Target Pref. Name>  (97) 
Tyrosine-protein kinase JAK3

>  <Target Organism>  (97) 
Homo sapiens

>  <Target Type>  (97) 
SINGLE PROTEIN

>  <Document>  (97) 
CHEMBL1201862

>  <Source>  (97) 
PubChem BioAssays

>  <Max Phase>  (97) 
0

>  <#Ro5 Violations>  (97) 
0

>  <Molecular Weight>  (97) 
361.47

>  <Ligand Efficiency BEI>  (97) 
nan

>  <Ligand Efficiency LE>  (97) 
nan

>  <Ligand Efficiency LLE>  (97) 
nan

>  <Ligand Efficiency SEI>  (97) 
nan

>  <ALogP>  (97) 
4.89

>  <Assay Organism>  (97) 
nan

>  <Assay Tissue ChEMBL ID>  (97) 
nan

>  <Assay Tissue Name>  (97) 
nan

>  <Assay Cell Type>  (97) 
nan

>  <Assay Subcellular Fraction>  (97) 
nan

>  <Organism Tax ID>  (97) 
9606

>  <BAO Format ID>  (97) 
BAO_0000019

>  <Published Type>  (97) 
nan

>  <Published Relation>  (97) 
nan

>  <Published Value>  (97) 
nan

>  <Published Units>  (97) 
nan

>  <Canonical Smiles>  (97) 
OCCC(Nc1nc2ccc(cc2s1)c3ccncc3)c4ccccc4

>  <Data Validity Comment>  (97) 
nan

>  <Document Journal>  (97) 
nan

>  <Document Year>  (97) 
nan

>  <SRC ID>  (97) 
7

>  <UO Units>  (97) 
UO_0000065

>  <Potential Duplicate>  (97) 
False

>  <Class>  (97) 
0

$$$$

     RDKit          2D

 27 30  0  0  0  0  0  0  0  0999 V2000
    3.7500  -14.2894    0.0000 C   0  0  0  0  0  0  0  0  0  0  0  0
    3.0000  -12.9904    0.0000 C   0  0  0  0  0  0  0  0  0  0  0  0
    1.5000  -12.9904    0.0000 C   0  0  0  0  0  0  0  0  0  0  0  0
    0.7500  -11.6913    0.0000 C   0  0  0  0  0  0  0  0  0  0  0  0
    1.5000  -10.3923    0.0000 C   0  0  0  0  0  0  0  0  0  0  0  0
    3.0000  -10.3923    0.0000 C   0  0  0  0  0  0  0  0  0  0  0  0
    3.7500   -9.0933    0.0000 N   0  0  0  0  0  0  0  0  0  0  0  0
    3.0000   -7.7942    0.0000 C   0  0  0  0  0  0  0  0  0  0  0  0
    1.5000   -7.7942    0.0000 O   0  0  0  0  0  0  0  0  0  0  0  0
    3.7500   -6.4952    0.0000 N   0  0  0  0  0  0  0  0  0  0  0  0
    3.0000   -5.1962    0.0000 C   0  0  0  0  0  0  0  0  0  0  0  0
    3.7500   -3.8971    0.0000 C   0  0  0  0  0  0  0  0  0  0  0  0
    3.0000   -2.5981    0.0000 C   0  0  0  0  0  0  0  0  0  0  0  0
    1.5000   -2.5981    0.0000 C   0  0  0  0  0  0  0  0  0  0  0  0
    0.7500   -3.8971    0.0000 C   0  0  0  0  0  0  0  0  0  0  0  0
    1.5000   -5.1962    0.0000 C   0  0  0  0  0  0  0  0  0  0  0  0
    0.7500   -1.2990    0.0000 C   0  0  0  0  0  0  0  0  0  0  0  0
    1.5000    0.0000    0.0000 C   0  0  0  0  0  0  0  0  0  0  0  0
    0.7500    1.2990    0.0000 C   0  0  0  0  0  0  0  0  0  0  0  0
   -0.7500    1.2990    0.0000 C   0  0  0  0  0  0  0  0  0  0  0  0
   -1.5000    0.0000    0.0000 C   0  0  0  0  0  0  0  0  0  0  0  0
   -2.9672   -0.3119    0.0000 C   0  0  0  0  0  0  0  0  0  0  0  0
   -4.0819    0.6918    0.0000 O   0  0  0  0  0  0  0  0  0  0  0  0
   -3.1240   -1.8037    0.0000 N   0  0  0  0  0  0  0  0  0  0  0  0
   -1.7537   -2.4138    0.0000 C   0  0  0  0  0  0  0  0  0  0  0  0
   -0.7500   -1.2990    0.0000 C   0  0  0  0  0  0  0  0  0  0  0  0
    3.7500  -11.6913    0.0000 C   0  0  0  0  0  0  0  0  0  0  0  0
  1  2  1  0
  2  3  2  0
  3  4  1  0
  4  5  2  0
  5  6  1  0
  6  7  1  0
  7  8  1  0
  8  9  2  0
  8 10  1  0
 10 11  1  0
 11 12  2  0
 12 13  1  0
 13 14  2  0
 14 15  1  0
 15 16  2  0
 14 17  1  0
 17 18  2  0
 18 19  1  0
 19 20  2  0
 20 21  1  0
 21 22  1  0
 22 23  2  0
 22 24  1  0
 24 25  1  0
 25 26  1  0
  6 27  2  0
 27  2  1  0
 16 11  1  0
 26 17  1  0
 26 21  2  0
M  END
>  <Molecule>  (98) 
CHEMBL185569

>  <Standard Type>  (98) 
Ki

>  <Standard Relation>  (98) 
>

>  <Standard Value>  (98) 
1584.89

>  <Standard Units>  (98) 
nM

>  <pChEMBL Value>  (98) 
nan

>  <Comment>  (98) 
inactive

>  <Compound Key>  (98) 
SID103904337

>  <Assay>  (98) 
CHEMBL1963742

>  <Assay Description>  (98) 
PUBCHEM_BIOASSAY: Navigating the Kinome. (Class of assay: other) Panel member name: JAK3

>  <BAO Format>  (98) 
assay format

>  <Target>  (98) 
CHEMBL2148

>  <Target Pref. Name>  (98) 
Tyrosine-protein kinase JAK3

>  <Target Organism>  (98) 
Homo sapiens

>  <Target Type>  (98) 
SINGLE PROTEIN

>  <Document>  (98) 
CHEMBL1201862

>  <Source>  (98) 
PubChem BioAssays

>  <Max Phase>  (98) 
0

>  <#Ro5 Violations>  (98) 
0

>  <Molecular Weight>  (98) 
357.41

>  <Ligand Efficiency BEI>  (98) 
nan

>  <Ligand Efficiency LE>  (98) 
nan

>  <Ligand Efficiency LLE>  (98) 
nan

>  <Ligand Efficiency SEI>  (98) 
nan

>  <ALogP>  (98) 
4.55

>  <Assay Organism>  (98) 
nan

>  <Assay Tissue ChEMBL ID>  (98) 
nan

>  <Assay Tissue Name>  (98) 
nan

>  <Assay Cell Type>  (98) 
nan

>  <Assay Subcellular Fraction>  (98) 
nan

>  <Organism Tax ID>  (98) 
9606

>  <BAO Format ID>  (98) 
BAO_0000019

>  <Published Type>  (98) 
nan

>  <Published Relation>  (98) 
nan

>  <Published Value>  (98) 
nan

>  <Published Units>  (98) 
nan

>  <Canonical Smiles>  (98) 
Cc1cccc(NC(=O)Nc2ccc(cc2)c3cccc4C(=O)NCc34)c1

>  <Data Validity Comment>  (98) 
nan

>  <Document Journal>  (98) 
nan

>  <Document Year>  (98) 
nan

>  <SRC ID>  (98) 
7

>  <UO Units>  (98) 
UO_0000065

>  <Potential Duplicate>  (98) 
False

>  <Class>  (98) 
0

$$$$

     RDKit          2D

 31 34  0  0  0  0  0  0  0  0999 V2000
    3.7500   -1.2990    0.0000 C   0  0  0  0  0  0  0  0  0  0  0  0
    3.0000    0.0000    0.0000 O   0  0  0  0  0  0  0  0  0  0  0  0
    1.5000    0.0000    0.0000 C   0  0  0  0  0  0  0  0  0  0  0  0
    0.7500   -1.2990    0.0000 C   0  0  0  0  0  0  0  0  0  0  0  0
   -0.7500   -1.2990    0.0000 C   0  0  0  0  0  0  0  0  0  0  0  0
   -1.5000   -2.5981    0.0000 N   0  0  0  0  0  0  0  0  0  0  0  0
   -3.0000   -2.5981    0.0000 C   0  0  0  0  0  0  0  0  0  0  0  0
   -3.7500   -1.2990    0.0000 N   0  0  0  0  0  0  0  0  0  0  0  0
   -5.2500   -1.2990    0.0000 C   0  0  0  0  0  0  0  0  0  0  0  0
   -6.0000   -2.5981    0.0000 C   0  0  0  0  0  0  0  0  0  0  0  0
   -5.2500   -3.8971    0.0000 C   0  0  0  0  0  0  0  0  0  0  0  0
   -6.0000   -5.1962    0.0000 N   0  0  0  0  0  0  0  0  0  0  0  0
   -7.5000   -5.1962    0.0000 C   0  0  0  0  0  0  0  0  0  0  0  0
   -8.3817   -6.4097    0.0000 O   0  0  0  0  0  0  0  0  0  0  0  0
   -9.8083   -5.9462    0.0000 N   0  0  0  0  0  0  0  0  0  0  0  0
   -9.8083   -4.4462    0.0000 C   0  0  0  0  0  0  0  0  0  0  0  0
   -8.3817   -3.9826    0.0000 C   0  0  0  0  0  0  0  0  0  0  0  0
  -11.0218   -3.5645    0.0000 C   0  0  0  0  0  0  0  0  0  0  0  0
  -10.8650   -2.0727    0.0000 C   0  0  0  0  0  0  0  0  0  0  0  0
  -12.0785   -1.1910    0.0000 C   0  0  0  0  0  0  0  0  0  0  0  0
  -13.4488   -1.8011    0.0000 C   0  0  0  0  0  0  0  0  0  0  0  0
  -13.6056   -3.2929    0.0000 C   0  0  0  0  0  0  0  0  0  0  0  0
  -12.3921   -4.1746    0.0000 C   0  0  0  0  0  0  0  0  0  0  0  0
   -3.7500   -3.8971    0.0000 N   0  0  0  0  0  0  0  0  0  0  0  0
   -1.5000    0.0000    0.0000 C   0  0  0  0  0  0  0  0  0  0  0  0
   -0.7500    1.2990    0.0000 C   0  0  0  0  0  0  0  0  0  0  0  0
   -1.5000    2.5981    0.0000 O   0  0  0  0  0  0  0  0  0  0  0  0
   -0.7500    3.8971    0.0000 C   0  0  0  0  0  0  0  0  0  0  0  0
    0.7500    1.2990    0.0000 C   0  0  0  0  0  0  0  0  0  0  0  0
    1.5000    2.5981    0.0000 O   0  0  0  0  0  0  0  0  0  0  0  0
    3.0000    2.5981    0.0000 C   0  0  0  0  0  0  0  0  0  0  0  0
  1  2  1  0
  2  3  1  0
  3  4  2  0
  4  5  1  0
  5  6  1  0
  6  7  1  0
  7  8  2  0
  8  9  1  0
  9 10  2  0
 10 11  1  0
 11 12  1  0
 12 13  1  0
 13 14  1  0
 14 15  1  0
 15 16  2  0
 16 17  1  0
 16 18  1  0
 18 19  1  0
 19 20  1  0
 20 21  1  0
 21 22  1  0
 22 23  1  0
 11 24  2  0
  5 25  2  0
 25 26  1  0
 26 27  1  0
 27 28  1  0
 26 29  2  0
 29 30  1  0
 30 31  1  0
 29  3  1  0
 24  7  1  0
 17 13  2  0
 23 18  1  0
M  END
>  <Molecule>  (99) 
CHEMBL1984711

>  <Standard Type>  (99) 
Ki

>  <Standard Relation>  (99) 
>

>  <Standard Value>  (99) 
1584.89

>  <Standard Units>  (99) 
nM

>  <pChEMBL Value>  (99) 
nan

>  <Comment>  (99) 
inactive

>  <Compound Key>  (99) 
SID103905215

>  <Assay>  (99) 
CHEMBL1963742

>  <Assay Description>  (99) 
PUBCHEM_BIOASSAY: Navigating the Kinome. (Class of assay: other) Panel member name: JAK3

>  <BAO Format>  (99) 
assay format

>  <Target>  (99) 
CHEMBL2148

>  <Target Pref. Name>  (99) 
Tyrosine-protein kinase JAK3

>  <Target Organism>  (99) 
Homo sapiens

>  <Target Type>  (99) 
SINGLE PROTEIN

>  <Document>  (99) 
CHEMBL1201862

>  <Source>  (99) 
PubChem BioAssays

>  <Max Phase>  (99) 
0

>  <#Ro5 Violations>  (99) 
1

>  <Molecular Weight>  (99) 
425.49

>  <Ligand Efficiency BEI>  (99) 
nan

>  <Ligand Efficiency LE>  (99) 
nan

>  <Ligand Efficiency LLE>  (99) 
nan

>  <Ligand Efficiency SEI>  (99) 
nan

>  <ALogP>  (99) 
5.03

>  <Assay Organism>  (99) 
nan

>  <Assay Tissue ChEMBL ID>  (99) 
nan

>  <Assay Tissue Name>  (99) 
nan

>  <Assay Cell Type>  (99) 
nan

>  <Assay Subcellular Fraction>  (99) 
nan

>  <Organism Tax ID>  (99) 
9606

>  <BAO Format ID>  (99) 
BAO_0000019

>  <Published Type>  (99) 
nan

>  <Published Relation>  (99) 
nan

>  <Published Value>  (99) 
nan

>  <Published Units>  (99) 
nan

>  <Canonical Smiles>  (99) 
COc1cc(Nc2nccc(Nc3onc(c3)C4CCCCC4)n2)cc(OC)c1OC

>  <Data Validity Comment>  (99) 
nan

>  <Document Journal>  (99) 
nan

>  <Document Year>  (99) 
nan

>  <SRC ID>  (99) 
7

>  <UO Units>  (99) 
UO_0000065

>  <Potential Duplicate>  (99) 
False

>  <Class>  (99) 
0

$$$$

     RDKit          2D

 29 32  0  0  0  0  0  0  0  0999 V2000
  -11.6913  -10.3573    0.0000 C   0  0  0  0  0  0  0  0  0  0  0  0
  -10.3923   -9.6073    0.0000 N   0  0  0  0  0  0  0  0  0  0  0  0
  -10.3923   -8.1073    0.0000 C   0  0  0  0  0  0  0  0  0  0  0  0
   -9.0933   -7.3573    0.0000 C   0  0  0  0  0  0  0  0  0  0  0  0
   -7.7942   -8.1073    0.0000 N   0  0  0  0  0  0  0  0  0  0  0  0
   -6.4952   -7.3573    0.0000 C   0  0  0  0  0  0  0  0  0  0  0  0
   -5.1962   -8.1073    0.0000 C   0  0  0  0  0  0  0  0  0  0  0  0
   -3.8971   -7.3573    0.0000 C   0  0  0  0  0  0  0  0  0  0  0  0
   -2.5981   -8.1073    0.0000 N   0  0  0  0  0  0  0  0  0  0  0  0
   -1.2990   -7.3573    0.0000 C   0  0  0  0  0  0  0  0  0  0  0  0
    0.0000   -8.1073    0.0000 C   0  0  0  0  0  0  0  0  0  0  0  0
    1.2990   -7.3573    0.0000 C   0  0  0  0  0  0  0  0  0  0  0  0
    1.2990   -5.8573    0.0000 C   0  0  0  0  0  0  0  0  0  0  0  0
   -0.0000   -5.1073    0.0000 C   0  0  0  0  0  0  0  0  0  0  0  0
   -1.2990   -5.8573    0.0000 N   0  0  0  0  0  0  0  0  0  0  0  0
   -0.0000   -3.6073    0.0000 C   0  0  0  0  0  0  0  0  0  0  0  0
    1.2135   -2.7256    0.0000 N   0  0  0  0  0  0  0  0  0  0  0  0
    0.7500   -1.2990    0.0000 C   0  0  0  0  0  0  0  0  0  0  0  0
    1.5000    0.0000    0.0000 C   0  0  0  0  0  0  0  0  0  0  0  0
    0.7500    1.2990    0.0000 C   0  0  0  0  0  0  0  0  0  0  0  0
   -0.7500    1.2990    0.0000 C   0  0  0  0  0  0  0  0  0  0  0  0
   -1.5000    0.0000    0.0000 C   0  0  0  0  0  0  0  0  0  0  0  0
   -0.7500   -1.2990    0.0000 C   0  0  0  0  0  0  0  0  0  0  0  0
   -1.2135   -2.7256    0.0000 N   0  0  0  0  0  0  0  0  0  0  0  0
    3.0000    0.0000    0.0000 C   0  0  0  0  0  0  0  0  0  0  0  0
    3.7500   -1.2990    0.0000 O   0  0  0  0  0  0  0  0  0  0  0  0
    3.7500    1.2990    0.0000 N   0  0  0  0  0  0  0  0  0  0  0  0
   -7.7942   -9.6073    0.0000 C   0  0  0  0  0  0  0  0  0  0  0  0
   -9.0933  -10.3573    0.0000 C   0  0  0  0  0  0  0  0  0  0  0  0
  1  2  1  0
  2  3  1  0
  3  4  1  0
  4  5  1  0
  5  6  1  0
  6  7  1  0
  7  8  1  0
  8  9  1  0
  9 10  1  0
 10 11  2  0
 11 12  1  0
 12 13  2  0
 13 14  1  0
 14 15  2  0
 14 16  1  0
 16 17  2  0
 17 18  1  0
 18 19  2  0
 19 20  1  0
 20 21  2  0
 21 22  1  0
 22 23  2  0
 23 24  1  0
 19 25  1  0
 25 26  2  0
 25 27  1  0
  5 28  1  0
 28 29  1  0
 29  2  1  0
 15 10  1  0
 24 16  1  0
 23 18  1  0
M  END
>  <Molecule>  (100) 
CHEMBL2006237

>  <Standard Type>  (100) 
Ki

>  <Standard Relation>  (100) 
>

>  <Standard Value>  (100) 
1584.89

>  <Standard Units>  (100) 
nM

>  <pChEMBL Value>  (100) 
nan

>  <Comment>  (100) 
inactive

>  <Compound Key>  (100) 
SID103904687

>  <Assay>  (100) 
CHEMBL1963742

>  <Assay Description>  (100) 
PUBCHEM_BIOASSAY: Navigating the Kinome. (Class of assay: other) Panel member name: JAK3

>  <BAO Format>  (100) 
assay format

>  <Target>  (100) 
CHEMBL2148

>  <Target Pref. Name>  (100) 
Tyrosine-protein kinase JAK3

>  <Target Organism>  (100) 
Homo sapiens

>  <Target Type>  (100) 
SINGLE PROTEIN

>  <Document>  (100) 
CHEMBL1201862

>  <Source>  (100) 
PubChem BioAssays

>  <Max Phase>  (100) 
0

>  <#Ro5 Violations>  (100) 
0

>  <Molecular Weight>  (100) 
393.5

>  <Ligand Efficiency BEI>  (100) 
nan

>  <Ligand Efficiency LE>  (100) 
nan

>  <Ligand Efficiency LLE>  (100) 
nan

>  <Ligand Efficiency SEI>  (100) 
nan

>  <ALogP>  (100) 
1.77

>  <Assay Organism>  (100) 
nan

>  <Assay Tissue ChEMBL ID>  (100) 
nan

>  <Assay Tissue Name>  (100) 
nan

>  <Assay Cell Type>  (100) 
nan

>  <Assay Subcellular Fraction>  (100) 
nan

>  <Organism Tax ID>  (100) 
9606

>  <BAO Format ID>  (100) 
BAO_0000019

>  <Published Type>  (100) 
nan

>  <Published Relation>  (100) 
nan

>  <Published Value>  (100) 
nan

>  <Published Units>  (100) 
nan

>  <Canonical Smiles>  (100) 
CN1CCN(CCCNc2cccc(n2)c3nc4c(cccc4[nH]3)C(=O)N)CC1

>  <Data Validity Comment>  (100) 
nan

>  <Document Journal>  (100) 
nan

>  <Document Year>  (100) 
nan

>  <SRC ID>  (100) 
7

>  <UO Units>  (100) 
UO_0000065

>  <Potential Duplicate>  (100) 
False

>  <Class>  (100) 
0

$$$$

     RDKit          2D

 20 22  0  0  0  0  0  0  0  0999 V2000
    3.0000    0.0000    0.0000 N   0  0  0  0  0  0  0  0  0  0  0  0
    1.5000    0.0000    0.0000 C   0  0  0  0  0  0  0  0  0  0  0  0
    0.7500   -1.2990    0.0000 N   0  0  0  0  0  0  0  0  0  0  0  0
   -0.7500   -1.2990    0.0000 C   0  0  0  0  0  0  0  0  0  0  0  0
   -1.5000    0.0000    0.0000 N   0  0  0  0  0  0  0  0  0  0  0  0
   -0.7500    1.2990    0.0000 C   0  0  0  0  0  0  0  0  0  0  0  0
    0.7500    1.2990    0.0000 C   0  0  0  0  0  0  0  0  0  0  0  0
    1.2135    2.7256    0.0000 C   0  0  0  0  0  0  0  0  0  0  0  0
    2.6401    3.1891    0.0000 I   0  0  0  0  0  0  0  0  0  0  0  0
    0.0000    3.6073    0.0000 N   0  0  0  0  0  0  0  0  0  0  0  0
   -1.2135    2.7256    0.0000 N   0  0  0  0  0  0  0  0  0  0  0  0
   -2.6401    3.1891    0.0000 C   0  0  0  0  0  0  0  0  0  0  0  0
   -3.8536    2.3075    0.0000 O   0  0  0  0  0  0  0  0  0  0  0  0
   -5.0672    3.1891    0.0000 C   0  0  0  0  0  0  0  0  0  0  0  0
   -6.4937    2.7256    0.0000 C   0  0  0  0  0  0  0  0  0  0  0  0
   -7.6085    3.7293    0.0000 O   0  0  0  0  0  0  0  0  0  0  0  0
   -4.6036    4.6157    0.0000 C   0  0  0  0  0  0  0  0  0  0  0  0
   -5.4853    5.8293    0.0000 O   0  0  0  0  0  0  0  0  0  0  0  0
   -3.1036    4.6157    0.0000 C   0  0  0  0  0  0  0  0  0  0  0  0
   -2.2220    5.8293    0.0000 O   0  0  0  0  0  0  0  0  0  0  0  0
  1  2  1  0
  2  3  2  0
  3  4  1  0
  4  5  2  0
  5  6  1  0
  6  7  2  0
  7  8  1  0
  8  9  1  0
  8 10  2  0
 10 11  1  0
 11 12  1  0
 12 13  1  0
 13 14  1  0
 14 15  1  0
 15 16  1  0
 14 17  1  0
 17 18  1  0
 17 19  1  0
 19 20  1  0
  7  2  1  0
 11  6  1  0
 19 12  1  0
M  END
>  <Molecule>  (101) 
CHEMBL2001288

>  <Standard Type>  (101) 
Ki

>  <Standard Relation>  (101) 
>

>  <Standard Value>  (101) 
1584.89

>  <Standard Units>  (101) 
nM

>  <pChEMBL Value>  (101) 
nan

>  <Comment>  (101) 
inactive

>  <Compound Key>  (101) 
SID103905653

>  <Assay>  (101) 
CHEMBL1963742

>  <Assay Description>  (101) 
PUBCHEM_BIOASSAY: Navigating the Kinome. (Class of assay: other) Panel member name: JAK3

>  <BAO Format>  (101) 
assay format

>  <Target>  (101) 
CHEMBL2148

>  <Target Pref. Name>  (101) 
Tyrosine-protein kinase JAK3

>  <Target Organism>  (101) 
Homo sapiens

>  <Target Type>  (101) 
SINGLE PROTEIN

>  <Document>  (101) 
CHEMBL1201862

>  <Source>  (101) 
PubChem BioAssays

>  <Max Phase>  (101) 
0

>  <#Ro5 Violations>  (101) 
0

>  <Molecular Weight>  (101) 
393.14

>  <Ligand Efficiency BEI>  (101) 
nan

>  <Ligand Efficiency LE>  (101) 
nan

>  <Ligand Efficiency LLE>  (101) 
nan

>  <Ligand Efficiency SEI>  (101) 
nan

>  <ALogP>  (101) 
-1.38

>  <Assay Organism>  (101) 
nan

>  <Assay Tissue ChEMBL ID>  (101) 
nan

>  <Assay Tissue Name>  (101) 
nan

>  <Assay Cell Type>  (101) 
nan

>  <Assay Subcellular Fraction>  (101) 
nan

>  <Organism Tax ID>  (101) 
9606

>  <BAO Format ID>  (101) 
BAO_0000019

>  <Published Type>  (101) 
nan

>  <Published Relation>  (101) 
nan

>  <Published Value>  (101) 
nan

>  <Published Units>  (101) 
nan

>  <Canonical Smiles>  (101) 
Nc1ncnc2c1c(I)nn2C3OC(CO)C(O)C3O

>  <Data Validity Comment>  (101) 
nan

>  <Document Journal>  (101) 
nan

>  <Document Year>  (101) 
nan

>  <SRC ID>  (101) 
7

>  <UO Units>  (101) 
UO_0000065

>  <Potential Duplicate>  (101) 
False

>  <Class>  (101) 
0

$$$$

     RDKit          2D

 25 28  0  0  0  0  0  0  0  0999 V2000
   -4.5556    9.1664    0.0000 O   0  0  0  0  0  0  0  0  0  0  0  0
   -3.4408    8.1628    0.0000 C   0  0  0  0  0  0  0  0  0  0  0  0
   -2.0143    8.6263    0.0000 N   0  0  0  0  0  0  0  0  0  0  0  0
   -1.7024   10.0935    0.0000 C   0  0  0  0  0  0  0  0  0  0  0  0
   -0.2758   10.5570    0.0000 C   0  0  0  0  0  0  0  0  0  0  0  0
    0.8389    9.5533    0.0000 C   0  0  0  0  0  0  0  0  0  0  0  0
    2.2655   10.0169    0.0000 C   0  0  0  0  0  0  0  0  0  0  0  0
    2.5774   11.4841    0.0000 C   0  0  0  0  0  0  0  0  0  0  0  0
    1.4627   12.4878    0.0000 C   0  0  0  0  0  0  0  0  0  0  0  0
    0.0361   12.0242    0.0000 C   0  0  0  0  0  0  0  0  0  0  0  0
   -3.7527    6.6955    0.0000 C   0  0  0  0  0  0  0  0  0  0  0  0
   -5.1793    6.2320    0.0000 C   0  0  0  0  0  0  0  0  0  0  0  0
   -5.4912    4.7648    0.0000 C   0  0  0  0  0  0  0  0  0  0  0  0
   -4.3764    3.7611    0.0000 C   0  0  0  0  0  0  0  0  0  0  0  0
   -2.9499    4.2246    0.0000 C   0  0  0  0  0  0  0  0  0  0  0  0
   -2.6380    5.6918    0.0000 C   0  0  0  0  0  0  0  0  0  0  0  0
   -1.8351    3.2209    0.0000 C   0  0  0  0  0  0  0  0  0  0  0  0
   -0.4086    3.6844    0.0000 C   0  0  0  0  0  0  0  0  0  0  0  0
    0.7062    2.6807    0.0000 N   0  0  0  0  0  0  0  0  0  0  0  0
    0.3943    1.2135    0.0000 C   0  0  0  0  0  0  0  0  0  0  0  0
    1.2760    0.0000    0.0000 N   0  0  0  0  0  0  0  0  0  0  0  0
    0.3943   -1.2135    0.0000 C   0  0  0  0  0  0  0  0  0  0  0  0
   -1.0323   -0.7500    0.0000 C   0  0  0  0  0  0  0  0  0  0  0  0
   -1.0323    0.7500    0.0000 C   0  0  0  0  0  0  0  0  0  0  0  0
   -2.1470    1.7537    0.0000 C   0  0  0  0  0  0  0  0  0  0  0  0
  1  2  2  0
  2  3  1  0
  3  4  1  0
  4  5  1  0
  5  6  2  0
  6  7  1  0
  7  8  2  0
  8  9  1  0
  9 10  2  0
  2 11  1  0
 11 12  2  0
 12 13  1  0
 13 14  2  0
 14 15  1  0
 15 16  2  0
 15 17  1  0
 17 18  2  0
 18 19  1  0
 19 20  2  0
 20 21  1  0
 21 22  1  0
 22 23  2  0
 23 24  1  0
 24 25  2  0
 10  5  1  0
 16 11  1  0
 25 17  1  0
 24 20  1  0
M  END
>  <Molecule>  (102) 
CHEMBL1972142

>  <Standard Type>  (102) 
Ki

>  <Standard Relation>  (102) 
>

>  <Standard Value>  (102) 
1584.89

>  <Standard Units>  (102) 
nM

>  <pChEMBL Value>  (102) 
nan

>  <Comment>  (102) 
inactive

>  <Compound Key>  (102) 
SID103904567

>  <Assay>  (102) 
CHEMBL1963742

>  <Assay Description>  (102) 
PUBCHEM_BIOASSAY: Navigating the Kinome. (Class of assay: other) Panel member name: JAK3

>  <BAO Format>  (102) 
assay format

>  <Target>  (102) 
CHEMBL2148

>  <Target Pref. Name>  (102) 
Tyrosine-protein kinase JAK3

>  <Target Organism>  (102) 
Homo sapiens

>  <Target Type>  (102) 
SINGLE PROTEIN

>  <Document>  (102) 
CHEMBL1201862

>  <Source>  (102) 
PubChem BioAssays

>  <Max Phase>  (102) 
0

>  <#Ro5 Violations>  (102) 
0

>  <Molecular Weight>  (102) 
327.39

>  <Ligand Efficiency BEI>  (102) 
nan

>  <Ligand Efficiency LE>  (102) 
nan

>  <Ligand Efficiency LLE>  (102) 
nan

>  <Ligand Efficiency SEI>  (102) 
nan

>  <ALogP>  (102) 
4.16

>  <Assay Organism>  (102) 
nan

>  <Assay Tissue ChEMBL ID>  (102) 
nan

>  <Assay Tissue Name>  (102) 
nan

>  <Assay Cell Type>  (102) 
nan

>  <Assay Subcellular Fraction>  (102) 
nan

>  <Organism Tax ID>  (102) 
9606

>  <BAO Format ID>  (102) 
BAO_0000019

>  <Published Type>  (102) 
nan

>  <Published Relation>  (102) 
nan

>  <Published Value>  (102) 
nan

>  <Published Units>  (102) 
nan

>  <Canonical Smiles>  (102) 
O=C(NCc1ccccc1)c2cccc(c2)c3cnc4[nH]ccc4c3

>  <Data Validity Comment>  (102) 
nan

>  <Document Journal>  (102) 
nan

>  <Document Year>  (102) 
nan

>  <SRC ID>  (102) 
7

>  <UO Units>  (102) 
UO_0000065

>  <Potential Duplicate>  (102) 
False

>  <Class>  (102) 
0

$$$$

     RDKit          2D

 24 26  0  0  0  0  0  0  0  0999 V2000
    3.7500   -1.2990    0.0000 C   0  0  0  0  0  0  0  0  0  0  0  0
    3.0000    0.0000    0.0000 O   0  0  0  0  0  0  0  0  0  0  0  0
    1.5000    0.0000    0.0000 C   0  0  0  0  0  0  0  0  0  0  0  0
    0.7500   -1.2990    0.0000 C   0  0  0  0  0  0  0  0  0  0  0  0
   -0.7500   -1.2990    0.0000 C   0  0  0  0  0  0  0  0  0  0  0  0
   -1.5000    0.0000    0.0000 C   0  0  0  0  0  0  0  0  0  0  0  0
   -0.7500    1.2990    0.0000 C   0  0  0  0  0  0  0  0  0  0  0  0
   -1.5000    2.5981    0.0000 C   0  0  0  0  0  0  0  0  0  0  0  0
   -0.7500    3.8971    0.0000 N   0  0  0  0  0  0  0  0  0  0  0  0
   -1.5000    5.1962    0.0000 C   0  0  0  0  0  0  0  0  0  0  0  0
   -3.0000    5.1962    0.0000 O   0  0  0  0  0  0  0  0  0  0  0  0
   -0.7500    6.4952    0.0000 C   0  0  0  0  0  0  0  0  0  0  0  0
    0.7500    6.4952    0.0000 C   0  0  0  0  0  0  0  0  0  0  0  0
    1.5000    7.7942    0.0000 N   0  0  0  0  0  0  0  0  0  0  0  0
    0.7500    9.0933    0.0000 C   0  0  0  0  0  0  0  0  0  0  0  0
   -0.7500    9.0933    0.0000 N   0  0  0  0  0  0  0  0  0  0  0  0
   -1.5000    7.7942    0.0000 C   0  0  0  0  0  0  0  0  0  0  0  0
    1.5000   10.3923    0.0000 C   0  0  0  0  0  0  0  0  0  0  0  0
    3.0000   10.3923    0.0000 C   0  0  0  0  0  0  0  0  0  0  0  0
    3.7500   11.6913    0.0000 C   0  0  0  0  0  0  0  0  0  0  0  0
    3.0000   12.9904    0.0000 N   0  0  0  0  0  0  0  0  0  0  0  0
    1.5000   12.9904    0.0000 C   0  0  0  0  0  0  0  0  0  0  0  0
    0.7500   11.6913    0.0000 C   0  0  0  0  0  0  0  0  0  0  0  0
    0.7500    1.2990    0.0000 C   0  0  0  0  0  0  0  0  0  0  0  0
  1  2  1  0
  2  3  1  0
  3  4  2  0
  4  5  1  0
  5  6  2  0
  6  7  1  0
  7  8  1  0
  8  9  1  0
  9 10  1  0
 10 11  2  0
 10 12  1  0
 12 13  2  0
 13 14  1  0
 14 15  2  0
 15 16  1  0
 16 17  2  0
 15 18  1  0
 18 19  2  0
 19 20  1  0
 20 21  2  0
 21 22  1  0
 22 23  2  0
  7 24  2  0
 24  3  1  0
 17 12  1  0
 23 18  1  0
M  END
>  <Molecule>  (103) 
CHEMBL2004159

>  <Standard Type>  (103) 
Ki

>  <Standard Relation>  (103) 
>

>  <Standard Value>  (103) 
5011.87

>  <Standard Units>  (103) 
nM

>  <pChEMBL Value>  (103) 
nan

>  <Comment>  (103) 
inactive

>  <Compound Key>  (103) 
SID103904586

>  <Assay>  (103) 
CHEMBL1963742

>  <Assay Description>  (103) 
PUBCHEM_BIOASSAY: Navigating the Kinome. (Class of assay: other) Panel member name: JAK3

>  <BAO Format>  (103) 
assay format

>  <Target>  (103) 
CHEMBL2148

>  <Target Pref. Name>  (103) 
Tyrosine-protein kinase JAK3

>  <Target Organism>  (103) 
Homo sapiens

>  <Target Type>  (103) 
SINGLE PROTEIN

>  <Document>  (103) 
CHEMBL1201862

>  <Source>  (103) 
PubChem BioAssays

>  <Max Phase>  (103) 
0

>  <#Ro5 Violations>  (103) 
0

>  <Molecular Weight>  (103) 
320.35

>  <Ligand Efficiency BEI>  (103) 
nan

>  <Ligand Efficiency LE>  (103) 
nan

>  <Ligand Efficiency LLE>  (103) 
nan

>  <Ligand Efficiency SEI>  (103) 
nan

>  <ALogP>  (103) 
2.48

>  <Assay Organism>  (103) 
nan

>  <Assay Tissue ChEMBL ID>  (103) 
nan

>  <Assay Tissue Name>  (103) 
nan

>  <Assay Cell Type>  (103) 
nan

>  <Assay Subcellular Fraction>  (103) 
nan

>  <Organism Tax ID>  (103) 
9606

>  <BAO Format ID>  (103) 
BAO_0000019

>  <Published Type>  (103) 
nan

>  <Published Relation>  (103) 
nan

>  <Published Value>  (103) 
nan

>  <Published Units>  (103) 
nan

>  <Canonical Smiles>  (103) 
COc1cccc(CNC(=O)c2cnc(nc2)c3ccncc3)c1

>  <Data Validity Comment>  (103) 
nan

>  <Document Journal>  (103) 
nan

>  <Document Year>  (103) 
nan

>  <SRC ID>  (103) 
7

>  <UO Units>  (103) 
UO_0000065

>  <Potential Duplicate>  (103) 
False

>  <Class>  (103) 
0

$$$$

     RDKit          2D

 33 37  0  0  0  0  0  0  0  0999 V2000
    6.0000   -7.7942    0.0000 F   0  0  0  0  0  0  0  0  0  0  0  0
    5.2500   -6.4952    0.0000 C   0  0  0  0  0  0  0  0  0  0  0  0
    3.7500   -6.4952    0.0000 C   0  0  0  0  0  0  0  0  0  0  0  0
    3.0000   -5.1962    0.0000 C   0  0  0  0  0  0  0  0  0  0  0  0
    3.7500   -3.8971    0.0000 C   0  0  0  0  0  0  0  0  0  0  0  0
    3.0000   -2.5981    0.0000 C   0  0  0  0  0  0  0  0  0  0  0  0
    1.5000   -2.5981    0.0000 C   0  0  0  0  0  0  0  0  0  0  0  0
    0.7500   -3.8971    0.0000 N   0  0  0  0  0  0  0  0  0  0  0  0
   -0.7500   -3.8971    0.0000 N   0  0  0  0  0  0  0  0  0  0  0  0
   -1.5000   -2.5981    0.0000 C   0  0  0  0  0  0  0  0  0  0  0  0
   -3.0000   -2.5981    0.0000 O   0  0  0  0  0  0  0  0  0  0  0  0
   -0.7500   -1.2990    0.0000 C   0  0  0  0  0  0  0  0  0  0  0  0
    0.7500   -1.2990    0.0000 C   0  0  0  0  0  0  0  0  0  0  0  0
    1.5000    0.0000    0.0000 C   0  0  0  0  0  0  0  0  0  0  0  0
    0.7500    1.2990    0.0000 C   0  0  0  0  0  0  0  0  0  0  0  0
   -0.7500    1.2990    0.0000 C   0  0  0  0  0  0  0  0  0  0  0  0
   -1.5000    0.0000    0.0000 C   0  0  0  0  0  0  0  0  0  0  0  0
    5.2500   -3.8971    0.0000 C   0  0  0  0  0  0  0  0  0  0  0  0
    6.0000   -5.1962    0.0000 C   0  0  0  0  0  0  0  0  0  0  0  0
    7.5000   -5.1962    0.0000 C   0  0  0  0  0  0  0  0  0  0  0  0
    8.2500   -6.4952    0.0000 O   0  0  0  0  0  0  0  0  0  0  0  0
    8.2500   -3.8971    0.0000 N   0  0  0  0  0  0  0  0  0  0  0  0
    9.7500   -3.8971    0.0000 C   0  0  0  0  0  0  0  0  0  0  0  0
   10.5000   -2.5981    0.0000 C   0  0  0  0  0  0  0  0  0  0  0  0
    9.7500   -1.2990    0.0000 N   0  0  0  0  0  0  0  0  0  0  0  0
    8.2500   -1.2990    0.0000 C   0  0  0  0  0  0  0  0  0  0  0  0
    7.5000   -2.5981    0.0000 C   0  0  0  0  0  0  0  0  0  0  0  0
   10.5000    0.0000    0.0000 C   0  0  0  0  0  0  0  0  0  0  0  0
   12.0000    0.0000    0.0000 N   0  0  0  0  0  0  0  0  0  0  0  0
   12.7500    1.2990    0.0000 C   0  0  0  0  0  0  0  0  0  0  0  0
   12.0000    2.5981    0.0000 C   0  0  0  0  0  0  0  0  0  0  0  0
   10.5000    2.5981    0.0000 C   0  0  0  0  0  0  0  0  0  0  0  0
    9.7500    1.2990    0.0000 N   0  0  0  0  0  0  0  0  0  0  0  0
  1  2  1  0
  2  3  2  0
  3  4  1  0
  4  5  2  0
  5  6  1  0
  6  7  1  0
  7  8  2  0
  8  9  1  0
  9 10  1  0
 10 11  2  0
 10 12  1  0
 12 13  2  0
 13 14  1  0
 14 15  1  0
 15 16  1  0
 16 17  1  0
  5 18  1  0
 18 19  2  0
 19 20  1  0
 20 21  2  0
 20 22  1  0
 22 23  1  0
 23 24  1  0
 24 25  1  0
 25 26  1  0
 26 27  1  0
 25 28  1  0
 28 29  2  0
 29 30  1  0
 30 31  2  0
 31 32  1  0
 32 33  2  0
 19  2  1  0
 13  7  1  0
 17 12  1  0
 27 22  1  0
 33 28  1  0
M  END
>  <Molecule>  (104) 
CHEMBL1986530

>  <Standard Type>  (104) 
Ki

>  <Standard Relation>  (104) 
>

>  <Standard Value>  (104) 
1584.89

>  <Standard Units>  (104) 
nM

>  <pChEMBL Value>  (104) 
nan

>  <Comment>  (104) 
inactive

>  <Compound Key>  (104) 
SID103905570

>  <Assay>  (104) 
CHEMBL1963742

>  <Assay Description>  (104) 
PUBCHEM_BIOASSAY: Navigating the Kinome. (Class of assay: other) Panel member name: JAK3

>  <BAO Format>  (104) 
assay format

>  <Target>  (104) 
CHEMBL2148

>  <Target Pref. Name>  (104) 
Tyrosine-protein kinase JAK3

>  <Target Organism>  (104) 
Homo sapiens

>  <Target Type>  (104) 
SINGLE PROTEIN

>  <Document>  (104) 
CHEMBL1201862

>  <Source>  (104) 
PubChem BioAssays

>  <Max Phase>  (104) 
0

>  <#Ro5 Violations>  (104) 
0

>  <Molecular Weight>  (104) 
448.5

>  <Ligand Efficiency BEI>  (104) 
nan

>  <Ligand Efficiency LE>  (104) 
nan

>  <Ligand Efficiency LLE>  (104) 
nan

>  <Ligand Efficiency SEI>  (104) 
nan

>  <ALogP>  (104) 
2.13

>  <Assay Organism>  (104) 
nan

>  <Assay Tissue ChEMBL ID>  (104) 
nan

>  <Assay Tissue Name>  (104) 
nan

>  <Assay Cell Type>  (104) 
nan

>  <Assay Subcellular Fraction>  (104) 
nan

>  <Organism Tax ID>  (104) 
9606

>  <BAO Format ID>  (104) 
BAO_0000019

>  <Published Type>  (104) 
nan

>  <Published Relation>  (104) 
nan

>  <Published Value>  (104) 
nan

>  <Published Units>  (104) 
nan

>  <Canonical Smiles>  (104) 
Fc1ccc(CC2=NNC(=O)C3=C2CCCC3)cc1C(=O)N4CCN(CC4)c5ncccn5

>  <Data Validity Comment>  (104) 
nan

>  <Document Journal>  (104) 
nan

>  <Document Year>  (104) 
nan

>  <SRC ID>  (104) 
7

>  <UO Units>  (104) 
UO_0000065

>  <Potential Duplicate>  (104) 
False

>  <Class>  (104) 
0

$$$$

     RDKit          2D

 41 47  0  0  0  0  0  0  0  0999 V2000
    5.2500   -6.4952    0.0000 C   0  0  0  0  0  0  0  0  0  0  0  0
    6.0000   -5.1962    0.0000 O   0  0  0  0  0  0  0  0  0  0  0  0
    5.2500   -3.8971    0.0000 C   0  0  0  0  0  0  0  0  0  0  0  0
    3.7500   -3.8971    0.0000 C   0  0  0  0  0  0  0  0  0  0  0  0
    3.0000   -2.5981    0.0000 C   0  0  0  0  0  0  0  0  0  0  0  0
    1.5000   -2.5981    0.0000 N   0  0  0  0  0  0  0  0  0  0  0  0
    0.7500   -1.2990    0.0000 C   0  0  0  0  0  0  0  0  0  0  0  0
    1.5000    0.0000    0.0000 N   0  0  0  0  0  0  0  0  0  0  0  0
    0.7500    1.2990    0.0000 C   0  0  0  0  0  0  0  0  0  0  0  0
   -0.7500    1.2990    0.0000 N   0  0  0  0  0  0  0  0  0  0  0  0
   -1.5000    0.0000    0.0000 C   0  0  0  0  0  0  0  0  0  0  0  0
   -3.0000    0.0000    0.0000 C   0  0  0  0  0  0  0  0  0  0  0  0
   -3.7500   -1.2990    0.0000 C   0  0  0  0  0  0  0  0  0  0  0  0
   -3.0000   -2.5981    0.0000 C   0  0  0  0  0  0  0  0  0  0  0  0
   -1.5000   -2.5981    0.0000 C   0  0  0  0  0  0  0  0  0  0  0  0
   -0.7500   -1.2990    0.0000 C   0  0  0  0  0  0  0  0  0  0  0  0
   -3.7500   -3.8971    0.0000 C   0  0  0  0  0  0  0  0  0  0  0  0
   -5.2500   -3.8971    0.0000 C   0  0  0  0  0  0  0  0  0  0  0  0
   -6.0000   -5.1962    0.0000 C   0  0  0  0  0  0  0  0  0  0  0  0
   -5.2500   -6.4952    0.0000 C   0  0  0  0  0  0  0  0  0  0  0  0
   -6.0000   -7.7942    0.0000 C   0  0  0  0  0  0  0  0  0  0  0  0
   -7.5000   -7.7942    0.0000 N   0  0  0  0  0  0  0  0  0  0  0  0
   -8.3817   -9.0078    0.0000 C   0  0  0  0  0  0  0  0  0  0  0  0
   -9.8083   -8.5442    0.0000 C   0  0  0  0  0  0  0  0  0  0  0  0
  -11.1073   -7.7942    0.0000 C   0  0  0  0  0  0  0  0  0  0  0  0
  -12.6073   -7.7942    0.0000 C   0  0  0  0  0  0  0  0  0  0  0  0
  -13.3573   -6.4952    0.0000 O   0  0  0  0  0  0  0  0  0  0  0  0
   -9.8083   -7.0442    0.0000 C   0  0  0  0  0  0  0  0  0  0  0  0
   -8.3817   -6.5807    0.0000 C   0  0  0  0  0  0  0  0  0  0  0  0
   -3.7500   -6.4952    0.0000 C   0  0  0  0  0  0  0  0  0  0  0  0
   -3.0000   -5.1962    0.0000 C   0  0  0  0  0  0  0  0  0  0  0  0
    3.7500   -1.2990    0.0000 C   0  0  0  0  0  0  0  0  0  0  0  0
    5.2500   -1.2990    0.0000 C   0  0  0  0  0  0  0  0  0  0  0  0
    6.0000   -2.5981    0.0000 C   0  0  0  0  0  0  0  0  0  0  0  0
    7.5000   -2.5981    0.0000 O   0  0  0  0  0  0  0  0  0  0  0  0
    8.2500   -1.2990    0.0000 C   0  0  0  0  0  0  0  0  0  0  0  0
    9.7500   -1.2990    0.0000 C   0  0  0  0  0  0  0  0  0  0  0  0
   10.5000    0.0000    0.0000 C   0  0  0  0  0  0  0  0  0  0  0  0
    9.7500    1.2990    0.0000 C   0  0  0  0  0  0  0  0  0  0  0  0
    8.2500    1.2990    0.0000 C   0  0  0  0  0  0  0  0  0  0  0  0
    7.5000    0.0000    0.0000 C   0  0  0  0  0  0  0  0  0  0  0  0
  1  2  1  0
  2  3  1  0
  3  4  2  0
  4  5  1  0
  5  6  1  0
  6  7  1  0
  7  8  2  0
  8  9  1  0
  9 10  2  0
 10 11  1  0
 11 12  2  0
 12 13  1  0
 13 14  2  0
 14 15  1  0
 15 16  2  0
 14 17  1  0
 17 18  2  0
 18 19  1  0
 19 20  2  0
 20 21  1  0
 21 22  1  0
 22 23  1  0
 23 24  1  0
 24 25  1  0
 25 26  1  0
 26 27  1  0
 25 28  1  0
 28 29  1  0
 20 30  1  0
 30 31  2  0
  5 32  2  0
 32 33  1  0
 33 34  2  0
 34 35  1  0
 35 36  1  0
 36 37  2  0
 37 38  1  0
 38 39  2  0
 39 40  1  0
 40 41  2  0
 34  3  1  0
 16  7  1  0
 16 11  1  0
 31 17  1  0
 29 22  1  0
 28 24  1  0
 41 36  1  0
M  END
>  <Molecule>  (105) 
CHEMBL1999749

>  <Standard Type>  (105) 
Ki

>  <Standard Relation>  (105) 
>

>  <Standard Value>  (105) 
1584.89

>  <Standard Units>  (105) 
nM

>  <pChEMBL Value>  (105) 
nan

>  <Comment>  (105) 
inactive

>  <Compound Key>  (105) 
SID103905566

>  <Assay>  (105) 
CHEMBL1963742

>  <Assay Description>  (105) 
PUBCHEM_BIOASSAY: Navigating the Kinome. (Class of assay: other) Panel member name: JAK3

>  <BAO Format>  (105) 
assay format

>  <Target>  (105) 
CHEMBL2148

>  <Target Pref. Name>  (105) 
Tyrosine-protein kinase JAK3

>  <Target Organism>  (105) 
Homo sapiens

>  <Target Type>  (105) 
SINGLE PROTEIN

>  <Document>  (105) 
CHEMBL1201862

>  <Source>  (105) 
PubChem BioAssays

>  <Max Phase>  (105) 
0

>  <#Ro5 Violations>  (105) 
2

>  <Molecular Weight>  (105) 
544.66

>  <Ligand Efficiency BEI>  (105) 
nan

>  <Ligand Efficiency LE>  (105) 
nan

>  <Ligand Efficiency LLE>  (105) 
nan

>  <Ligand Efficiency SEI>  (105) 
nan

>  <ALogP>  (105) 
6.51

>  <Assay Organism>  (105) 
nan

>  <Assay Tissue ChEMBL ID>  (105) 
nan

>  <Assay Tissue Name>  (105) 
nan

>  <Assay Cell Type>  (105) 
nan

>  <Assay Subcellular Fraction>  (105) 
nan

>  <Organism Tax ID>  (105) 
9606

>  <BAO Format ID>  (105) 
BAO_0000019

>  <Published Type>  (105) 
nan

>  <Published Relation>  (105) 
nan

>  <Published Value>  (105) 
nan

>  <Published Units>  (105) 
nan

>  <Canonical Smiles>  (105) 
COc1cc(Nc2ncnc3ccc(cc23)c4ccc(CN5CC6C(CO)C6C5)cc4)ccc1Oc7ccccc7

>  <Data Validity Comment>  (105) 
nan

>  <Document Journal>  (105) 
nan

>  <Document Year>  (105) 
nan

>  <SRC ID>  (105) 
7

>  <UO Units>  (105) 
UO_0000065

>  <Potential Duplicate>  (105) 
False

>  <Class>  (105) 
0

$$$$

     RDKit          2D

 21 24  0  0  0  0  0  0  0  0999 V2000
   -4.4752    7.7937    0.0000 C   0  0  0  0  0  0  0  0  0  0  0  0
   -3.3605    8.7974    0.0000 C   0  0  0  0  0  0  0  0  0  0  0  0
   -1.9339    8.3339    0.0000 C   0  0  0  0  0  0  0  0  0  0  0  0
   -0.8192    9.3376    0.0000 C   0  0  0  0  0  0  0  0  0  0  0  0
   -1.1311   10.8048    0.0000 C   0  0  0  0  0  0  0  0  0  0  0  0
   -2.5577   11.2683    0.0000 C   0  0  0  0  0  0  0  0  0  0  0  0
   -3.6724   10.2646    0.0000 C   0  0  0  0  0  0  0  0  0  0  0  0
   -4.1634    6.3265    0.0000 C   0  0  0  0  0  0  0  0  0  0  0  0
   -2.7931    5.7164    0.0000 C   0  0  0  0  0  0  0  0  0  0  0  0
   -2.9499    4.2246    0.0000 N   0  0  0  0  0  0  0  0  0  0  0  0
   -4.4171    3.9127    0.0000 N   0  0  0  0  0  0  0  0  0  0  0  0
   -5.1671    5.2118    0.0000 N   0  0  0  0  0  0  0  0  0  0  0  0
   -1.8351    3.2209    0.0000 C   0  0  0  0  0  0  0  0  0  0  0  0
   -0.4086    3.6844    0.0000 C   0  0  0  0  0  0  0  0  0  0  0  0
    0.7062    2.6807    0.0000 C   0  0  0  0  0  0  0  0  0  0  0  0
    0.3943    1.2135    0.0000 C   0  0  0  0  0  0  0  0  0  0  0  0
    1.2760    0.0000    0.0000 N   0  0  0  0  0  0  0  0  0  0  0  0
    0.3943   -1.2135    0.0000 N   0  0  0  0  0  0  0  0  0  0  0  0
   -1.0323   -0.7500    0.0000 C   0  0  0  0  0  0  0  0  0  0  0  0
   -1.0323    0.7500    0.0000 C   0  0  0  0  0  0  0  0  0  0  0  0
   -2.1470    1.7537    0.0000 C   0  0  0  0  0  0  0  0  0  0  0  0
  1  2  1  0
  2  3  2  0
  3  4  1  0
  4  5  2  0
  5  6  1  0
  6  7  2  0
  1  8  1  0
  8  9  2  0
  9 10  1  0
 10 11  1  0
 11 12  2  0
 10 13  1  0
 13 14  2  0
 14 15  1  0
 15 16  2  0
 16 17  1  0
 17 18  1  0
 18 19  2  0
 19 20  1  0
 20 21  2  0
  7  2  1  0
 12  8  1  0
 21 13  1  0
 20 16  1  0
M  END
>  <Molecule>  (106) 
CHEMBL1682341

>  <Standard Type>  (106) 
Ki

>  <Standard Relation>  (106) 
>

>  <Standard Value>  (106) 
1584.89

>  <Standard Units>  (106) 
nM

>  <pChEMBL Value>  (106) 
nan

>  <Comment>  (106) 
inactive

>  <Compound Key>  (106) 
SID103904526

>  <Assay>  (106) 
CHEMBL1963742

>  <Assay Description>  (106) 
PUBCHEM_BIOASSAY: Navigating the Kinome. (Class of assay: other) Panel member name: JAK3

>  <BAO Format>  (106) 
assay format

>  <Target>  (106) 
CHEMBL2148

>  <Target Pref. Name>  (106) 
Tyrosine-protein kinase JAK3

>  <Target Organism>  (106) 
Homo sapiens

>  <Target Type>  (106) 
SINGLE PROTEIN

>  <Document>  (106) 
CHEMBL1201862

>  <Source>  (106) 
PubChem BioAssays

>  <Max Phase>  (106) 
0

>  <#Ro5 Violations>  (106) 
0

>  <Molecular Weight>  (106) 
275.31

>  <Ligand Efficiency BEI>  (106) 
nan

>  <Ligand Efficiency LE>  (106) 
nan

>  <Ligand Efficiency LLE>  (106) 
nan

>  <Ligand Efficiency SEI>  (106) 
nan

>  <ALogP>  (106) 
2.73

>  <Assay Organism>  (106) 
nan

>  <Assay Tissue ChEMBL ID>  (106) 
nan

>  <Assay Tissue Name>  (106) 
nan

>  <Assay Cell Type>  (106) 
nan

>  <Assay Subcellular Fraction>  (106) 
nan

>  <Organism Tax ID>  (106) 
9606

>  <BAO Format ID>  (106) 
BAO_0000019

>  <Published Type>  (106) 
nan

>  <Published Relation>  (106) 
nan

>  <Published Value>  (106) 
nan

>  <Published Units>  (106) 
nan

>  <Canonical Smiles>  (106) 
C(c1ccccc1)c2cn(nn2)c3ccc4[nH]ncc4c3

>  <Data Validity Comment>  (106) 
nan

>  <Document Journal>  (106) 
nan

>  <Document Year>  (106) 
nan

>  <SRC ID>  (106) 
7

>  <UO Units>  (106) 
UO_0000065

>  <Potential Duplicate>  (106) 
False

>  <Class>  (106) 
0

$$$$

     RDKit          2D

 23 26  0  0  0  0  0  0  0  0999 V2000
   -0.0000   -5.1073    0.0000 N   0  0  0  0  0  0  0  0  0  0  0  0
   -0.0000   -3.6073    0.0000 C   0  0  0  0  0  0  0  0  0  0  0  0
    1.2135   -2.7256    0.0000 N   0  0  0  0  0  0  0  0  0  0  0  0
    0.7500   -1.2990    0.0000 C   0  0  0  0  0  0  0  0  0  0  0  0
    1.5000    0.0000    0.0000 C   0  0  0  0  0  0  0  0  0  0  0  0
    0.7500    1.2990    0.0000 C   0  0  0  0  0  0  0  0  0  0  0  0
   -0.7500    1.2990    0.0000 C   0  0  0  0  0  0  0  0  0  0  0  0
   -1.5000    0.0000    0.0000 C   0  0  0  0  0  0  0  0  0  0  0  0
   -0.7500   -1.2990    0.0000 C   0  0  0  0  0  0  0  0  0  0  0  0
   -1.2135   -2.7256    0.0000 N   0  0  0  0  0  0  0  0  0  0  0  0
   -2.6401   -3.1891    0.0000 C   0  0  0  0  0  0  0  0  0  0  0  0
   -3.1036   -4.6157    0.0000 N   0  0  0  0  0  0  0  0  0  0  0  0
   -4.6036   -4.6157    0.0000 C   0  0  0  0  0  0  0  0  0  0  0  0
   -5.0672   -3.1891    0.0000 C   0  0  0  0  0  0  0  0  0  0  0  0
   -3.8536   -2.3075    0.0000 S   0  0  0  0  0  0  0  0  0  0  0  0
   -5.4853   -5.8293    0.0000 C   0  0  0  0  0  0  0  0  0  0  0  0
   -6.9771   -5.6725    0.0000 C   0  0  0  0  0  0  0  0  0  0  0  0
   -7.8588   -6.8860    0.0000 C   0  0  0  0  0  0  0  0  0  0  0  0
   -7.2487   -8.2563    0.0000 C   0  0  0  0  0  0  0  0  0  0  0  0
   -5.7569   -8.4131    0.0000 C   0  0  0  0  0  0  0  0  0  0  0  0
   -4.8752   -7.1996    0.0000 C   0  0  0  0  0  0  0  0  0  0  0  0
   -1.5000    2.5981    0.0000 C   0  0  0  0  0  0  0  0  0  0  0  0
   -2.2500    3.8971    0.0000 N   0  0  0  0  0  0  0  0  0  0  0  0
  1  2  1  0
  2  3  2  0
  3  4  1  0
  4  5  2  0
  5  6  1  0
  6  7  2  0
  7  8  1  0
  8  9  2  0
  9 10  1  0
 10 11  1  0
 11 12  2  0
 12 13  1  0
 13 14  2  0
 14 15  1  0
 13 16  1  0
 16 17  2  0
 17 18  1  0
 18 19  2  0
 19 20  1  0
 20 21  2  0
  7 22  1  0
 22 23  3  0
 10  2  1  0
  9  4  1  0
 15 11  1  0
 21 16  1  0
M  END
>  <Molecule>  (107) 
CHEMBL1996066

>  <Standard Type>  (107) 
Ki

>  <Standard Relation>  (107) 
>

>  <Standard Value>  (107) 
1584.89

>  <Standard Units>  (107) 
nM

>  <pChEMBL Value>  (107) 
nan

>  <Comment>  (107) 
inactive

>  <Compound Key>  (107) 
SID103904819

>  <Assay>  (107) 
CHEMBL1963742

>  <Assay Description>  (107) 
PUBCHEM_BIOASSAY: Navigating the Kinome. (Class of assay: other) Panel member name: JAK3

>  <BAO Format>  (107) 
assay format

>  <Target>  (107) 
CHEMBL2148

>  <Target Pref. Name>  (107) 
Tyrosine-protein kinase JAK3

>  <Target Organism>  (107) 
Homo sapiens

>  <Target Type>  (107) 
SINGLE PROTEIN

>  <Document>  (107) 
CHEMBL1201862

>  <Source>  (107) 
PubChem BioAssays

>  <Max Phase>  (107) 
0

>  <#Ro5 Violations>  (107) 
0

>  <Molecular Weight>  (107) 
317.38

>  <Ligand Efficiency BEI>  (107) 
nan

>  <Ligand Efficiency LE>  (107) 
nan

>  <Ligand Efficiency LLE>  (107) 
nan

>  <Ligand Efficiency SEI>  (107) 
nan

>  <ALogP>  (107) 
3.6

>  <Assay Organism>  (107) 
nan

>  <Assay Tissue ChEMBL ID>  (107) 
nan

>  <Assay Tissue Name>  (107) 
nan

>  <Assay Cell Type>  (107) 
nan

>  <Assay Subcellular Fraction>  (107) 
nan

>  <Organism Tax ID>  (107) 
9606

>  <BAO Format ID>  (107) 
BAO_0000019

>  <Published Type>  (107) 
nan

>  <Published Relation>  (107) 
nan

>  <Published Value>  (107) 
nan

>  <Published Units>  (107) 
nan

>  <Canonical Smiles>  (107) 
Nc1nc2ccc(cc2n1c3nc(cs3)c4ccccc4)C#N

>  <Data Validity Comment>  (107) 
nan

>  <Document Journal>  (107) 
nan

>  <Document Year>  (107) 
nan

>  <SRC ID>  (107) 
7

>  <UO Units>  (107) 
UO_0000065

>  <Potential Duplicate>  (107) 
False

>  <Class>  (107) 
0

$$$$

     RDKit          2D

 22 24  0  0  0  0  0  0  0  0999 V2000
    4.6740   -7.4303    0.0000 C   0  0  0  0  0  0  0  0  0  0  0  0
    3.3037   -6.8202    0.0000 C   0  0  0  0  0  0  0  0  0  0  0  0
    2.9918   -5.3529    0.0000 N   0  0  0  0  0  0  0  0  0  0  0  0
    1.5000   -5.1962    0.0000 C   0  0  0  0  0  0  0  0  0  0  0  0
    0.7500   -3.8971    0.0000 C   0  0  0  0  0  0  0  0  0  0  0  0
    1.5000   -2.5981    0.0000 O   0  0  0  0  0  0  0  0  0  0  0  0
    0.7500   -1.2990    0.0000 C   0  0  0  0  0  0  0  0  0  0  0  0
    1.5000    0.0000    0.0000 C   0  0  0  0  0  0  0  0  0  0  0  0
    0.7500    1.2990    0.0000 C   0  0  0  0  0  0  0  0  0  0  0  0
   -0.7500    1.2990    0.0000 C   0  0  0  0  0  0  0  0  0  0  0  0
   -1.5000    0.0000    0.0000 C   0  0  0  0  0  0  0  0  0  0  0  0
   -0.7500   -1.2990    0.0000 C   0  0  0  0  0  0  0  0  0  0  0  0
   -1.5000   -2.5981    0.0000 Cl  0  0  0  0  0  0  0  0  0  0  0  0
    0.8899   -6.5665    0.0000 S   0  0  0  0  0  0  0  0  0  0  0  0
    2.0046   -7.5702    0.0000 C   0  0  0  0  0  0  0  0  0  0  0  0
    1.8478   -9.0619    0.0000 C   0  0  0  0  0  0  0  0  0  0  0  0
    0.4775   -9.6721    0.0000 C   0  0  0  0  0  0  0  0  0  0  0  0
    0.3207  -11.1638    0.0000 C   0  0  0  0  0  0  0  0  0  0  0  0
    1.5342  -12.0455    0.0000 N   0  0  0  0  0  0  0  0  0  0  0  0
    2.9046  -11.4354    0.0000 C   0  0  0  0  0  0  0  0  0  0  0  0
    4.1181  -12.3171    0.0000 N   0  0  0  0  0  0  0  0  0  0  0  0
    3.0613   -9.9436    0.0000 N   0  0  0  0  0  0  0  0  0  0  0  0
  1  2  1  0
  2  3  1  0
  3  4  2  0
  4  5  1  0
  5  6  1  0
  6  7  1  0
  7  8  2  0
  8  9  1  0
  9 10  2  0
 10 11  1  0
 11 12  2  0
 12 13  1  0
  4 14  1  0
 14 15  1  0
 15 16  1  0
 16 17  2  0
 17 18  1  0
 18 19  2  0
 19 20  1  0
 20 21  1  0
 20 22  2  0
 15  2  2  0
 12  7  1  0
 22 16  1  0
M  END
>  <Molecule>  (108) 
CHEMBL1375640

>  <Standard Type>  (108) 
Ki

>  <Standard Relation>  (108) 
>

>  <Standard Value>  (108) 
1584.89

>  <Standard Units>  (108) 
nM

>  <pChEMBL Value>  (108) 
nan

>  <Comment>  (108) 
inactive

>  <Compound Key>  (108) 
SID103905409

>  <Assay>  (108) 
CHEMBL1963742

>  <Assay Description>  (108) 
PUBCHEM_BIOASSAY: Navigating the Kinome. (Class of assay: other) Panel member name: JAK3

>  <BAO Format>  (108) 
assay format

>  <Target>  (108) 
CHEMBL2148

>  <Target Pref. Name>  (108) 
Tyrosine-protein kinase JAK3

>  <Target Organism>  (108) 
Homo sapiens

>  <Target Type>  (108) 
SINGLE PROTEIN

>  <Document>  (108) 
CHEMBL1201862

>  <Source>  (108) 
PubChem BioAssays

>  <Max Phase>  (108) 
0

>  <#Ro5 Violations>  (108) 
0

>  <Molecular Weight>  (108) 
332.82

>  <Ligand Efficiency BEI>  (108) 
nan

>  <Ligand Efficiency LE>  (108) 
nan

>  <Ligand Efficiency LLE>  (108) 
nan

>  <Ligand Efficiency SEI>  (108) 
nan

>  <ALogP>  (108) 
3.72

>  <Assay Organism>  (108) 
nan

>  <Assay Tissue ChEMBL ID>  (108) 
nan

>  <Assay Tissue Name>  (108) 
nan

>  <Assay Cell Type>  (108) 
nan

>  <Assay Subcellular Fraction>  (108) 
nan

>  <Organism Tax ID>  (108) 
9606

>  <BAO Format ID>  (108) 
BAO_0000019

>  <Published Type>  (108) 
nan

>  <Published Relation>  (108) 
nan

>  <Published Value>  (108) 
nan

>  <Published Units>  (108) 
nan

>  <Canonical Smiles>  (108) 
Cc1nc(COc2ccccc2Cl)sc1c3ccnc(N)n3

>  <Data Validity Comment>  (108) 
nan

>  <Document Journal>  (108) 
nan

>  <Document Year>  (108) 
nan

>  <SRC ID>  (108) 
7

>  <UO Units>  (108) 
UO_0000065

>  <Potential Duplicate>  (108) 
False

>  <Class>  (108) 
0

$$$$

     RDKit          2D

 36 39  0  0  0  0  0  0  0  0999 V2000
   -7.8396   -9.2187    0.0000 C   0  0  0  0  0  0  0  0  0  0  0  0
   -6.3478   -9.0619    0.0000 C   0  0  0  0  0  0  0  0  0  0  0  0
   -4.8560   -8.9052    0.0000 C   0  0  0  0  0  0  0  0  0  0  0  0
   -6.1910  -10.5537    0.0000 C   0  0  0  0  0  0  0  0  0  0  0  0
   -6.5046   -7.5702    0.0000 C   0  0  0  0  0  0  0  0  0  0  0  0
   -5.3899   -6.5665    0.0000 C   0  0  0  0  0  0  0  0  0  0  0  0
   -6.0000   -5.1962    0.0000 C   0  0  0  0  0  0  0  0  0  0  0  0
   -5.2500   -3.8971    0.0000 N   0  0  0  0  0  0  0  0  0  0  0  0
   -3.7500   -3.8971    0.0000 C   0  0  0  0  0  0  0  0  0  0  0  0
   -3.0000   -5.1962    0.0000 O   0  0  0  0  0  0  0  0  0  0  0  0
   -3.0000   -2.5981    0.0000 C   0  0  0  0  0  0  0  0  0  0  0  0
   -3.7500   -1.2990    0.0000 O   0  0  0  0  0  0  0  0  0  0  0  0
   -1.5000   -2.5981    0.0000 C   0  0  0  0  0  0  0  0  0  0  0  0
   -0.7500   -3.8971    0.0000 C   0  0  0  0  0  0  0  0  0  0  0  0
    0.7500   -3.8971    0.0000 C   0  0  0  0  0  0  0  0  0  0  0  0
    1.5000   -2.5981    0.0000 C   0  0  0  0  0  0  0  0  0  0  0  0
    0.7500   -1.2990    0.0000 C   0  0  0  0  0  0  0  0  0  0  0  0
    1.5000    0.0000    0.0000 C   0  0  0  0  0  0  0  0  0  0  0  0
    0.7500    1.2990    0.0000 C   0  0  0  0  0  0  0  0  0  0  0  0
   -0.7500    1.2990    0.0000 C   0  0  0  0  0  0  0  0  0  0  0  0
   -1.5000    0.0000    0.0000 C   0  0  0  0  0  0  0  0  0  0  0  0
   -0.7500   -1.2990    0.0000 C   0  0  0  0  0  0  0  0  0  0  0  0
   -7.4918   -5.3529    0.0000 N   0  0  0  0  0  0  0  0  0  0  0  0
   -7.8037   -6.8202    0.0000 N   0  0  0  0  0  0  0  0  0  0  0  0
   -8.4955   -4.2382    0.0000 C   0  0  0  0  0  0  0  0  0  0  0  0
   -8.0320   -2.8116    0.0000 C   0  0  0  0  0  0  0  0  0  0  0  0
   -9.0356   -1.6969    0.0000 C   0  0  0  0  0  0  0  0  0  0  0  0
  -10.5029   -2.0088    0.0000 C   0  0  0  0  0  0  0  0  0  0  0  0
  -11.5066   -0.8941    0.0000 O   0  0  0  0  0  0  0  0  0  0  0  0
  -11.0430    0.5325    0.0000 C   0  0  0  0  0  0  0  0  0  0  0  0
  -12.0467    1.6472    0.0000 C   0  0  0  0  0  0  0  0  0  0  0  0
  -11.5832    3.0738    0.0000 C   0  0  0  0  0  0  0  0  0  0  0  0
  -10.1160    3.3857    0.0000 O   0  0  0  0  0  0  0  0  0  0  0  0
  -12.5869    4.1885    0.0000 O   0  0  0  0  0  0  0  0  0  0  0  0
  -10.9664   -3.4354    0.0000 C   0  0  0  0  0  0  0  0  0  0  0  0
   -9.9627   -4.5501    0.0000 C   0  0  0  0  0  0  0  0  0  0  0  0
  1  2  1  0
  2  3  1  0
  2  4  1  0
  2  5  1  0
  5  6  1  0
  6  7  2  0
  7  8  1  0
  8  9  1  0
  9 10  2  0
  9 11  1  0
 11 12  2  0
 11 13  1  0
 13 14  2  0
 14 15  1  0
 15 16  2  0
 16 17  1  0
 17 18  2  0
 18 19  1  0
 19 20  2  0
 20 21  1  0
 21 22  2  0
  7 23  1  0
 23 24  1  0
 23 25  1  0
 25 26  2  0
 26 27  1  0
 27 28  2  0
 28 29  1  0
 29 30  1  0
 30 31  1  0
 31 32  1  0
 32 33  2  0
 32 34  1  0
 28 35  1  0
 35 36  2  0
 24  5  2  0
 22 13  1  0
 22 17  1  0
 36 25  1  0
M  END
>  <Molecule>  (109) 
CHEMBL2003689

>  <Standard Type>  (109) 
Ki

>  <Standard Relation>  (109) 
>

>  <Standard Value>  (109) 
5011.87

>  <Standard Units>  (109) 
nM

>  <pChEMBL Value>  (109) 
nan

>  <Comment>  (109) 
inactive

>  <Compound Key>  (109) 
SID103904846

>  <Assay>  (109) 
CHEMBL1963742

>  <Assay Description>  (109) 
PUBCHEM_BIOASSAY: Navigating the Kinome. (Class of assay: other) Panel member name: JAK3

>  <BAO Format>  (109) 
assay format

>  <Target>  (109) 
CHEMBL2148

>  <Target Pref. Name>  (109) 
Tyrosine-protein kinase JAK3

>  <Target Organism>  (109) 
Homo sapiens

>  <Target Type>  (109) 
SINGLE PROTEIN

>  <Document>  (109) 
CHEMBL1201862

>  <Source>  (109) 
PubChem BioAssays

>  <Max Phase>  (109) 
0

>  <#Ro5 Violations>  (109) 
0

>  <Molecular Weight>  (109) 
485.54

>  <Ligand Efficiency BEI>  (109) 
nan

>  <Ligand Efficiency LE>  (109) 
nan

>  <Ligand Efficiency LLE>  (109) 
nan

>  <Ligand Efficiency SEI>  (109) 
nan

>  <ALogP>  (109) 
5.0

>  <Assay Organism>  (109) 
nan

>  <Assay Tissue ChEMBL ID>  (109) 
nan

>  <Assay Tissue Name>  (109) 
nan

>  <Assay Cell Type>  (109) 
nan

>  <Assay Subcellular Fraction>  (109) 
nan

>  <Organism Tax ID>  (109) 
9606

>  <BAO Format ID>  (109) 
BAO_0000019

>  <Published Type>  (109) 
nan

>  <Published Relation>  (109) 
nan

>  <Published Value>  (109) 
nan

>  <Published Units>  (109) 
nan

>  <Canonical Smiles>  (109) 
CC(C)(C)c1cc(NC(=O)C(=O)c2cccc3ccccc23)n(n1)c4ccc(OCCC(=O)O)cc4

>  <Data Validity Comment>  (109) 
nan

>  <Document Journal>  (109) 
nan

>  <Document Year>  (109) 
nan

>  <SRC ID>  (109) 
7

>  <UO Units>  (109) 
UO_0000065

>  <Potential Duplicate>  (109) 
False

>  <Class>  (109) 
0

$$$$

     RDKit          2D

 35 39  0  0  0  0  0  0  0  0999 V2000
   -3.5736    1.2902    0.0000 N   0  0  0  0  0  0  0  0  0  0  0  0
   -2.1470    1.7537    0.0000 C   0  0  0  0  0  0  0  0  0  0  0  0
   -1.8351    3.2209    0.0000 N   0  0  0  0  0  0  0  0  0  0  0  0
   -0.4086    3.6844    0.0000 C   0  0  0  0  0  0  0  0  0  0  0  0
    0.7062    2.6807    0.0000 C   0  0  0  0  0  0  0  0  0  0  0  0
    2.1328    3.1443    0.0000 C   0  0  0  0  0  0  0  0  0  0  0  0
    2.5963    4.5709    0.0000 C   0  0  0  0  0  0  0  0  0  0  0  0
    4.0963    4.5709    0.0000 N   0  0  0  0  0  0  0  0  0  0  0  0
    4.5598    3.1443    0.0000 N   0  0  0  0  0  0  0  0  0  0  0  0
    5.9864    2.6807    0.0000 C   0  0  0  0  0  0  0  0  0  0  0  0
    6.2983    1.2135    0.0000 C   0  0  0  0  0  0  0  0  0  0  0  0
    7.7248    0.7500    0.0000 O   0  0  0  0  0  0  0  0  0  0  0  0
    3.3463    2.2626    0.0000 C   0  0  0  0  0  0  0  0  0  0  0  0
    0.3943    1.2135    0.0000 C   0  0  0  0  0  0  0  0  0  0  0  0
    1.2760    0.0000    0.0000 S   0  0  0  0  0  0  0  0  0  0  0  0
    0.3943   -1.2135    0.0000 C   0  0  0  0  0  0  0  0  0  0  0  0
   -1.0323   -0.7500    0.0000 C   0  0  0  0  0  0  0  0  0  0  0  0
   -2.2458   -1.6317    0.0000 C   0  0  0  0  0  0  0  0  0  0  0  0
   -3.6161   -1.0216    0.0000 C   0  0  0  0  0  0  0  0  0  0  0  0
   -4.8297   -1.9033    0.0000 C   0  0  0  0  0  0  0  0  0  0  0  0
   -4.6729   -3.3950    0.0000 C   0  0  0  0  0  0  0  0  0  0  0  0
   -5.8864   -4.2767    0.0000 N   0  0  0  0  0  0  0  0  0  0  0  0
   -7.2567   -3.6666    0.0000 C   0  0  0  0  0  0  0  0  0  0  0  0
   -7.4135   -2.1748    0.0000 O   0  0  0  0  0  0  0  0  0  0  0  0
   -8.4702   -4.5483    0.0000 N   0  0  0  0  0  0  0  0  0  0  0  0
   -9.8406   -3.9382    0.0000 C   0  0  0  0  0  0  0  0  0  0  0  0
   -9.9973   -2.4464    0.0000 C   0  0  0  0  0  0  0  0  0  0  0  0
  -11.3677   -1.8363    0.0000 C   0  0  0  0  0  0  0  0  0  0  0  0
  -12.5812   -2.7180    0.0000 C   0  0  0  0  0  0  0  0  0  0  0  0
  -12.4244   -4.2098    0.0000 C   0  0  0  0  0  0  0  0  0  0  0  0
  -13.6379   -5.0914    0.0000 F   0  0  0  0  0  0  0  0  0  0  0  0
  -11.0541   -4.8199    0.0000 C   0  0  0  0  0  0  0  0  0  0  0  0
   -3.3025   -4.0051    0.0000 C   0  0  0  0  0  0  0  0  0  0  0  0
   -2.0890   -3.1235    0.0000 C   0  0  0  0  0  0  0  0  0  0  0  0
   -1.0323    0.7500    0.0000 C   0  0  0  0  0  0  0  0  0  0  0  0
  1  2  1  0
  2  3  2  0
  3  4  1  0
  4  5  2  0
  5  6  1  0
  6  7  1  0
  7  8  2  0
  8  9  1  0
  9 10  1  0
 10 11  1  0
 11 12  1  0
  9 13  1  0
  5 14  1  0
 14 15  1  0
 15 16  1  0
 16 17  2  0
 17 18  1  0
 18 19  2  0
 19 20  1  0
 20 21  2  0
 21 22  1  0
 22 23  1  0
 23 24  2  0
 23 25  1  0
 25 26  1  0
 26 27  2  0
 27 28  1  0
 28 29  2  0
 29 30  1  0
 30 31  1  0
 30 32  2  0
 21 33  1  0
 33 34  2  0
 17 35  1  0
 35  2  1  0
 13  6  2  0
 35 14  2  0
 34 18  1  0
 32 26  1  0
M  END
>  <Molecule>  (110) 
CHEMBL1980297

>  <Standard Type>  (110) 
Ki

>  <Standard Relation>  (110) 
>

>  <Standard Value>  (110) 
5011.87

>  <Standard Units>  (110) 
nM

>  <pChEMBL Value>  (110) 
nan

>  <Comment>  (110) 
inactive

>  <Compound Key>  (110) 
SID103904272

>  <Assay>  (110) 
CHEMBL1963742

>  <Assay Description>  (110) 
PUBCHEM_BIOASSAY: Navigating the Kinome. (Class of assay: other) Panel member name: JAK3

>  <BAO Format>  (110) 
assay format

>  <Target>  (110) 
CHEMBL2148

>  <Target Pref. Name>  (110) 
Tyrosine-protein kinase JAK3

>  <Target Organism>  (110) 
Homo sapiens

>  <Target Type>  (110) 
SINGLE PROTEIN

>  <Document>  (110) 
CHEMBL1201862

>  <Source>  (110) 
PubChem BioAssays

>  <Max Phase>  (110) 
2

>  <#Ro5 Violations>  (110) 
1

>  <Molecular Weight>  (110) 
488.55

>  <Ligand Efficiency BEI>  (110) 
nan

>  <Ligand Efficiency LE>  (110) 
nan

>  <Ligand Efficiency LLE>  (110) 
nan

>  <Ligand Efficiency SEI>  (110) 
nan

>  <ALogP>  (110) 
5.18

>  <Assay Organism>  (110) 
nan

>  <Assay Tissue ChEMBL ID>  (110) 
nan

>  <Assay Tissue Name>  (110) 
nan

>  <Assay Cell Type>  (110) 
nan

>  <Assay Subcellular Fraction>  (110) 
nan

>  <Organism Tax ID>  (110) 
9606

>  <BAO Format ID>  (110) 
BAO_0000019

>  <Published Type>  (110) 
nan

>  <Published Relation>  (110) 
nan

>  <Published Value>  (110) 
nan

>  <Published Units>  (110) 
nan

>  <Canonical Smiles>  (110) 
Nc1ncc(c2cnn(CCO)c2)c3scc(c4ccc(NC(=O)Nc5cccc(F)c5)cc4)c13

>  <Data Validity Comment>  (110) 
nan

>  <Document Journal>  (110) 
nan

>  <Document Year>  (110) 
nan

>  <SRC ID>  (110) 
7

>  <UO Units>  (110) 
UO_0000065

>  <Potential Duplicate>  (110) 
False

>  <Class>  (110) 
0

$$$$

     RDKit          2D

 31 35  0  0  0  0  0  0  0  0999 V2000
  -13.1640    5.8606    0.0000 C   0  0  0  0  0  0  0  0  0  0  0  0
  -12.4140    4.5616    0.0000 C   0  0  0  0  0  0  0  0  0  0  0  0
  -13.1640    3.2626    0.0000 O   0  0  0  0  0  0  0  0  0  0  0  0
  -10.9140    4.5616    0.0000 N   0  0  0  0  0  0  0  0  0  0  0  0
  -10.1640    5.8606    0.0000 C   0  0  0  0  0  0  0  0  0  0  0  0
   -8.6640    5.8606    0.0000 C   0  0  0  0  0  0  0  0  0  0  0  0
   -7.9140    4.5616    0.0000 C   0  0  0  0  0  0  0  0  0  0  0  0
   -8.6640    3.2626    0.0000 C   0  0  0  0  0  0  0  0  0  0  0  0
  -10.1640    3.2626    0.0000 C   0  0  0  0  0  0  0  0  0  0  0  0
   -6.4140    4.5616    0.0000 N   0  0  0  0  0  0  0  0  0  0  0  0
   -5.6640    3.2626    0.0000 C   0  0  0  0  0  0  0  0  0  0  0  0
   -6.4140    1.9635    0.0000 N   0  0  0  0  0  0  0  0  0  0  0  0
   -5.6640    0.6645    0.0000 C   0  0  0  0  0  0  0  0  0  0  0  0
   -4.1640    0.6645    0.0000 C   0  0  0  0  0  0  0  0  0  0  0  0
   -3.4140    1.9635    0.0000 C   0  0  0  0  0  0  0  0  0  0  0  0
   -4.1640    3.2626    0.0000 N   0  0  0  0  0  0  0  0  0  0  0  0
   -1.9140    1.9635    0.0000 C   0  0  0  0  0  0  0  0  0  0  0  0
   -1.0323    3.1771    0.0000 C   0  0  0  0  0  0  0  0  0  0  0  0
    0.3943    2.7135    0.0000 N   0  0  0  0  0  0  0  0  0  0  0  0
    0.3943    1.2135    0.0000 C   0  0  0  0  0  0  0  0  0  0  0  0
    1.2760    0.0000    0.0000 O   0  0  0  0  0  0  0  0  0  0  0  0
    0.3943   -1.2135    0.0000 C   0  0  0  0  0  0  0  0  0  0  0  0
   -1.0323   -0.7500    0.0000 C   0  0  0  0  0  0  0  0  0  0  0  0
   -1.0323    0.7500    0.0000 N   0  0  0  0  0  0  0  0  0  0  0  0
   -1.4958    4.6036    0.0000 C   0  0  0  0  0  0  0  0  0  0  0  0
   -0.4921    5.7184    0.0000 C   0  0  0  0  0  0  0  0  0  0  0  0
   -0.9556    7.1449    0.0000 C   0  0  0  0  0  0  0  0  0  0  0  0
   -2.4229    7.4568    0.0000 C   0  0  0  0  0  0  0  0  0  0  0  0
   -2.8864    8.8834    0.0000 F   0  0  0  0  0  0  0  0  0  0  0  0
   -3.4266    6.3421    0.0000 C   0  0  0  0  0  0  0  0  0  0  0  0
   -2.9630    4.9155    0.0000 C   0  0  0  0  0  0  0  0  0  0  0  0
  1  2  1  0
  2  3  2  0
  2  4  1  0
  4  5  1  0
  5  6  1  0
  6  7  1  0
  7  8  1  0
  8  9  1  0
  7 10  1  0
 10 11  1  0
 11 12  2  0
 12 13  1  0
 13 14  2  0
 14 15  1  0
 15 16  2  0
 15 17  1  0
 17 18  2  0
 18 19  1  0
 19 20  2  0
 20 21  1  0
 21 22  1  0
 22 23  2  0
 23 24  1  0
 18 25  1  0
 25 26  2  0
 26 27  1  0
 27 28  2  0
 28 29  1  0
 28 30  1  0
 30 31  2  0
  9  4  1  0
 16 11  1  0
 24 17  1  0
 24 20  1  0
 31 25  1  0
M  END
>  <Molecule>  (111) 
CHEMBL1986781

>  <Standard Type>  (111) 
Ki

>  <Standard Relation>  (111) 
>

>  <Standard Value>  (111) 
1584.89

>  <Standard Units>  (111) 
nM

>  <pChEMBL Value>  (111) 
nan

>  <Comment>  (111) 
inactive

>  <Compound Key>  (111) 
SID103904423

>  <Assay>  (111) 
CHEMBL1963742

>  <Assay Description>  (111) 
PUBCHEM_BIOASSAY: Navigating the Kinome. (Class of assay: other) Panel member name: JAK3

>  <BAO Format>  (111) 
assay format

>  <Target>  (111) 
CHEMBL2148

>  <Target Pref. Name>  (111) 
Tyrosine-protein kinase JAK3

>  <Target Organism>  (111) 
Homo sapiens

>  <Target Type>  (111) 
SINGLE PROTEIN

>  <Document>  (111) 
CHEMBL1201862

>  <Source>  (111) 
PubChem BioAssays

>  <Max Phase>  (111) 
0

>  <#Ro5 Violations>  (111) 
0

>  <Molecular Weight>  (111) 
420.45

>  <Ligand Efficiency BEI>  (111) 
nan

>  <Ligand Efficiency LE>  (111) 
nan

>  <Ligand Efficiency LLE>  (111) 
nan

>  <Ligand Efficiency SEI>  (111) 
nan

>  <ALogP>  (111) 
3.61

>  <Assay Organism>  (111) 
nan

>  <Assay Tissue ChEMBL ID>  (111) 
nan

>  <Assay Tissue Name>  (111) 
nan

>  <Assay Cell Type>  (111) 
nan

>  <Assay Subcellular Fraction>  (111) 
nan

>  <Organism Tax ID>  (111) 
9606

>  <BAO Format ID>  (111) 
BAO_0000019

>  <Published Type>  (111) 
nan

>  <Published Relation>  (111) 
nan

>  <Published Value>  (111) 
nan

>  <Published Units>  (111) 
nan

>  <Canonical Smiles>  (111) 
CC(=O)N1CCC(CC1)Nc2nccc(n2)c3c(nc4occn34)c5ccc(F)cc5

>  <Data Validity Comment>  (111) 
nan

>  <Document Journal>  (111) 
nan

>  <Document Year>  (111) 
nan

>  <SRC ID>  (111) 
7

>  <UO Units>  (111) 
UO_0000065

>  <Potential Duplicate>  (111) 
False

>  <Class>  (111) 
0

$$$$

     RDKit          2D

 26 29  0  0  0  0  0  0  0  0999 V2000
   -2.6401   -3.1891    0.0000 C   0  0  0  0  0  0  0  0  0  0  0  0
   -1.2135   -2.7256    0.0000 C   0  0  0  0  0  0  0  0  0  0  0  0
   -0.0000   -3.6073    0.0000 C   0  0  0  0  0  0  0  0  0  0  0  0
   -0.0000   -5.1073    0.0000 C   0  0  0  0  0  0  0  0  0  0  0  0
    1.2135   -2.7256    0.0000 N   0  0  0  0  0  0  0  0  0  0  0  0
    2.6401   -3.1891    0.0000 C   0  0  0  0  0  0  0  0  0  0  0  0
    2.9520   -4.6564    0.0000 C   0  0  0  0  0  0  0  0  0  0  0  0
    1.8373   -5.6601    0.0000 C   0  0  0  0  0  0  0  0  0  0  0  0
    2.1491   -7.1273    0.0000 C   0  0  0  0  0  0  0  0  0  0  0  0
    3.5757   -7.5908    0.0000 C   0  0  0  0  0  0  0  0  0  0  0  0
    4.6904   -6.5871    0.0000 C   0  0  0  0  0  0  0  0  0  0  0  0
    4.3786   -5.1199    0.0000 C   0  0  0  0  0  0  0  0  0  0  0  0
    0.7500   -1.2990    0.0000 C   0  0  0  0  0  0  0  0  0  0  0  0
    1.5000    0.0000    0.0000 C   0  0  0  0  0  0  0  0  0  0  0  0
    0.7500    1.2990    0.0000 C   0  0  0  0  0  0  0  0  0  0  0  0
   -0.7500    1.2990    0.0000 C   0  0  0  0  0  0  0  0  0  0  0  0
   -1.5000    0.0000    0.0000 C   0  0  0  0  0  0  0  0  0  0  0  0
   -0.7500   -1.2990    0.0000 C   0  0  0  0  0  0  0  0  0  0  0  0
   -1.5000    2.5981    0.0000 C   0  0  0  0  0  0  0  0  0  0  0  0
   -3.0000    2.5981    0.0000 O   0  0  0  0  0  0  0  0  0  0  0  0
   -0.7500    3.8971    0.0000 N   0  0  0  0  0  0  0  0  0  0  0  0
   -1.5000    5.1962    0.0000 C   0  0  0  0  0  0  0  0  0  0  0  0
   -2.9918    5.3529    0.0000 N   0  0  0  0  0  0  0  0  0  0  0  0
   -3.3037    6.8202    0.0000 C   0  0  0  0  0  0  0  0  0  0  0  0
   -2.0046    7.5702    0.0000 N   0  0  0  0  0  0  0  0  0  0  0  0
   -0.8899    6.5665    0.0000 N   0  0  0  0  0  0  0  0  0  0  0  0
  1  2  1  0
  2  3  2  0
  3  4  1  0
  3  5  1  0
  5  6  1  0
  6  7  1  0
  7  8  2  0
  8  9  1  0
  9 10  2  0
 10 11  1  0
 11 12  2  0
  5 13  1  0
 13 14  2  0
 14 15  1  0
 15 16  2  0
 16 17  1  0
 17 18  2  0
 16 19  1  0
 19 20  2  0
 19 21  1  0
 21 22  1  0
 22 23  1  0
 23 24  2  0
 24 25  1  0
 25 26  1  0
 18  2  1  0
 12  7  1  0
 18 13  1  0
 26 22  2  0
M  END
>  <Molecule>  (112) 
CHEMBL1979718

>  <Standard Type>  (112) 
Ki

>  <Standard Relation>  (112) 
>

>  <Standard Value>  (112) 
1584.89

>  <Standard Units>  (112) 
nM

>  <pChEMBL Value>  (112) 
nan

>  <Comment>  (112) 
inactive

>  <Compound Key>  (112) 
SID103905662

>  <Assay>  (112) 
CHEMBL1963742

>  <Assay Description>  (112) 
PUBCHEM_BIOASSAY: Navigating the Kinome. (Class of assay: other) Panel member name: JAK3

>  <BAO Format>  (112) 
assay format

>  <Target>  (112) 
CHEMBL2148

>  <Target Pref. Name>  (112) 
Tyrosine-protein kinase JAK3

>  <Target Organism>  (112) 
Homo sapiens

>  <Target Type>  (112) 
SINGLE PROTEIN

>  <Document>  (112) 
CHEMBL1201862

>  <Source>  (112) 
PubChem BioAssays

>  <Max Phase>  (112) 
0

>  <#Ro5 Violations>  (112) 
0

>  <Molecular Weight>  (112) 
345.41

>  <Ligand Efficiency BEI>  (112) 
nan

>  <Ligand Efficiency LE>  (112) 
nan

>  <Ligand Efficiency LLE>  (112) 
nan

>  <Ligand Efficiency SEI>  (112) 
nan

>  <ALogP>  (112) 
3.68

>  <Assay Organism>  (112) 
nan

>  <Assay Tissue ChEMBL ID>  (112) 
nan

>  <Assay Tissue Name>  (112) 
nan

>  <Assay Cell Type>  (112) 
nan

>  <Assay Subcellular Fraction>  (112) 
nan

>  <Organism Tax ID>  (112) 
9606

>  <BAO Format ID>  (112) 
BAO_0000019

>  <Published Type>  (112) 
nan

>  <Published Relation>  (112) 
nan

>  <Published Value>  (112) 
nan

>  <Published Units>  (112) 
nan

>  <Canonical Smiles>  (112) 
Cc1c(C)n(Cc2ccccc2)c3ccc(cc13)C(=O)Nc4nc[nH]n4

>  <Data Validity Comment>  (112) 
nan

>  <Document Journal>  (112) 
nan

>  <Document Year>  (112) 
nan

>  <SRC ID>  (112) 
7

>  <UO Units>  (112) 
UO_0000065

>  <Potential Duplicate>  (112) 
False

>  <Class>  (112) 
0

$$$$

     RDKit          2D

 28 31  0  0  0  0  0  0  0  0999 V2000
   -1.8373   -5.6601    0.0000 O   0  0  0  0  0  0  0  0  0  0  0  0
   -2.9520   -4.6564    0.0000 C   0  0  0  0  0  0  0  0  0  0  0  0
   -4.3786   -5.1199    0.0000 C   0  0  0  0  0  0  0  0  0  0  0  0
   -4.6904   -6.5871    0.0000 O   0  0  0  0  0  0  0  0  0  0  0  0
   -6.1170   -7.0506    0.0000 C   0  0  0  0  0  0  0  0  0  0  0  0
   -7.2317   -6.0469    0.0000 C   0  0  0  0  0  0  0  0  0  0  0  0
   -8.6583   -6.5105    0.0000 N   0  0  0  0  0  0  0  0  0  0  0  0
   -8.9702   -7.9777    0.0000 C   0  0  0  0  0  0  0  0  0  0  0  0
   -7.8555   -8.9814    0.0000 C   0  0  0  0  0  0  0  0  0  0  0  0
   -8.1673  -10.4486    0.0000 C   0  0  0  0  0  0  0  0  0  0  0  0
   -9.5939  -10.9121    0.0000 C   0  0  0  0  0  0  0  0  0  0  0  0
   -9.9058  -12.3794    0.0000 C   0  0  0  0  0  0  0  0  0  0  0  0
  -11.3324  -12.8429    0.0000 C   0  0  0  0  0  0  0  0  0  0  0  0
  -11.6442  -14.3101    0.0000 C   0  0  0  0  0  0  0  0  0  0  0  0
  -10.5295  -15.3138    0.0000 N   0  0  0  0  0  0  0  0  0  0  0  0
   -9.1029  -14.8503    0.0000 C   0  0  0  0  0  0  0  0  0  0  0  0
   -8.7911  -13.3831    0.0000 C   0  0  0  0  0  0  0  0  0  0  0  0
   -6.4289   -8.5179    0.0000 C   0  0  0  0  0  0  0  0  0  0  0  0
   -2.6401   -3.1891    0.0000 C   0  0  0  0  0  0  0  0  0  0  0  0
   -1.2135   -2.7256    0.0000 C   0  0  0  0  0  0  0  0  0  0  0  0
    0.0000   -3.6073    0.0000 C   0  0  0  0  0  0  0  0  0  0  0  0
    1.2135   -2.7256    0.0000 N   0  0  0  0  0  0  0  0  0  0  0  0
    0.7500   -1.2990    0.0000 C   0  0  0  0  0  0  0  0  0  0  0  0
    1.5000    0.0000    0.0000 C   0  0  0  0  0  0  0  0  0  0  0  0
    0.7500    1.2990    0.0000 C   0  0  0  0  0  0  0  0  0  0  0  0
   -0.7500    1.2990    0.0000 C   0  0  0  0  0  0  0  0  0  0  0  0
   -1.5000    0.0000    0.0000 C   0  0  0  0  0  0  0  0  0  0  0  0
   -0.7500   -1.2990    0.0000 C   0  0  0  0  0  0  0  0  0  0  0  0
  1  2  1  0
  2  3  1  0
  3  4  1  0
  4  5  1  0
  5  6  2  0
  6  7  1  0
  7  8  2  0
  8  9  1  0
  9 10  1  0
 10 11  2  3
 11 12  1  0
 12 13  2  0
 13 14  1  0
 14 15  2  0
 15 16  1  0
 16 17  2  0
  9 18  2  0
  2 19  1  0
 19 20  1  0
 20 21  2  0
 21 22  1  0
 22 23  1  0
 23 24  2  0
 24 25  1  0
 25 26  2  0
 26 27  1  0
 27 28  2  0
 18  5  1  0
 17 12  1  0
 28 20  1  0
 28 23  1  0
M  END
>  <Molecule>  (113) 
CHEMBL1993584

>  <Standard Type>  (113) 
Ki

>  <Standard Relation>  (113) 
>

>  <Standard Value>  (113) 
1584.89

>  <Standard Units>  (113) 
nM

>  <pChEMBL Value>  (113) 
nan

>  <Comment>  (113) 
inactive

>  <Compound Key>  (113) 
SID103904750

>  <Assay>  (113) 
CHEMBL1963742

>  <Assay Description>  (113) 
PUBCHEM_BIOASSAY: Navigating the Kinome. (Class of assay: other) Panel member name: JAK3

>  <BAO Format>  (113) 
assay format

>  <Target>  (113) 
CHEMBL2148

>  <Target Pref. Name>  (113) 
Tyrosine-protein kinase JAK3

>  <Target Organism>  (113) 
Homo sapiens

>  <Target Type>  (113) 
SINGLE PROTEIN

>  <Document>  (113) 
CHEMBL1201862

>  <Source>  (113) 
PubChem BioAssays

>  <Max Phase>  (113) 
0

>  <#Ro5 Violations>  (113) 
0

>  <Molecular Weight>  (113) 
371.44

>  <Ligand Efficiency BEI>  (113) 
nan

>  <Ligand Efficiency LE>  (113) 
nan

>  <Ligand Efficiency LLE>  (113) 
nan

>  <Ligand Efficiency SEI>  (113) 
nan

>  <ALogP>  (113) 
4.11

>  <Assay Organism>  (113) 
nan

>  <Assay Tissue ChEMBL ID>  (113) 
nan

>  <Assay Tissue Name>  (113) 
nan

>  <Assay Cell Type>  (113) 
nan

>  <Assay Subcellular Fraction>  (113) 
nan

>  <Organism Tax ID>  (113) 
9606

>  <BAO Format ID>  (113) 
BAO_0000019

>  <Published Type>  (113) 
nan

>  <Published Relation>  (113) 
nan

>  <Published Value>  (113) 
nan

>  <Published Units>  (113) 
nan

>  <Canonical Smiles>  (113) 
OC(COc1cncc(C=Cc2ccncc2)c1)Cc3c[nH]c4ccccc34

>  <Data Validity Comment>  (113) 
nan

>  <Document Journal>  (113) 
nan

>  <Document Year>  (113) 
nan

>  <SRC ID>  (113) 
7

>  <UO Units>  (113) 
UO_0000065

>  <Potential Duplicate>  (113) 
False

>  <Class>  (113) 
0

$$$$

     RDKit          2D

 24 28  0  0  0  0  0  0  0  0999 V2000
   -6.6589    5.3686    0.0000 C   0  0  0  0  0  0  0  0  0  0  0  0
   -7.2690    6.7389    0.0000 C   0  0  0  0  0  0  0  0  0  0  0  0
   -6.3873    7.9524    0.0000 C   0  0  0  0  0  0  0  0  0  0  0  0
   -6.9974    9.3227    0.0000 C   0  0  0  0  0  0  0  0  0  0  0  0
   -8.4892    9.4795    0.0000 C   0  0  0  0  0  0  0  0  0  0  0  0
   -9.3709    8.2660    0.0000 C   0  0  0  0  0  0  0  0  0  0  0  0
   -8.7607    6.8957    0.0000 C   0  0  0  0  0  0  0  0  0  0  0  0
   -5.1671    5.2118    0.0000 N   0  0  0  0  0  0  0  0  0  0  0  0
   -4.1634    6.3265    0.0000 N   0  0  0  0  0  0  0  0  0  0  0  0
   -2.7931    5.7164    0.0000 N   0  0  0  0  0  0  0  0  0  0  0  0
   -2.9499    4.2246    0.0000 C   0  0  0  0  0  0  0  0  0  0  0  0
   -1.8351    3.2209    0.0000 C   0  0  0  0  0  0  0  0  0  0  0  0
   -0.4086    3.6844    0.0000 C   0  0  0  0  0  0  0  0  0  0  0  0
    0.7062    2.6807    0.0000 C   0  0  0  0  0  0  0  0  0  0  0  0
    0.3943    1.2135    0.0000 C   0  0  0  0  0  0  0  0  0  0  0  0
    1.2760    0.0000    0.0000 N   0  0  0  0  0  0  0  0  0  0  0  0
    0.3943   -1.2135    0.0000 N   0  0  0  0  0  0  0  0  0  0  0  0
   -1.0323   -0.7500    0.0000 C   0  0  0  0  0  0  0  0  0  0  0  0
   -1.0323    0.7500    0.0000 C   0  0  0  0  0  0  0  0  0  0  0  0
   -2.1470    1.7537    0.0000 C   0  0  0  0  0  0  0  0  0  0  0  0
   -4.4171    3.9127    0.0000 C   0  0  0  0  0  0  0  0  0  0  0  0
   -5.0272    2.5424    0.0000 C   0  0  0  0  0  0  0  0  0  0  0  0
   -4.8704    1.0506    0.0000 C   0  0  0  0  0  0  0  0  0  0  0  0
   -6.2407    1.6607    0.0000 C   0  0  0  0  0  0  0  0  0  0  0  0
  1  2  1  0
  2  3  2  0
  3  4  1  0
  4  5  2  0
  5  6  1  0
  6  7  2  0
  1  8  1  0
  8  9  1  0
  9 10  2  0
 10 11  1  0
 11 12  1  0
 12 13  2  0
 13 14  1  0
 14 15  2  0
 15 16  1  0
 16 17  1  0
 17 18  2  0
 18 19  1  0
 19 20  2  0
 11 21  2  0
 21 22  1  0
 22 23  1  0
 23 24  1  0
  7  2  1  0
 21  8  1  0
 20 12  1  0
 19 15  1  0
 24 22  1  0
M  END
>  <Molecule>  (114) 
CHEMBL1975418

>  <Standard Type>  (114) 
Ki

>  <Standard Relation>  (114) 
>

>  <Standard Value>  (114) 
1584.89

>  <Standard Units>  (114) 
nM

>  <pChEMBL Value>  (114) 
nan

>  <Comment>  (114) 
inactive

>  <Compound Key>  (114) 
SID103904512

>  <Assay>  (114) 
CHEMBL1963742

>  <Assay Description>  (114) 
PUBCHEM_BIOASSAY: Navigating the Kinome. (Class of assay: other) Panel member name: JAK3

>  <BAO Format>  (114) 
assay format

>  <Target>  (114) 
CHEMBL2148

>  <Target Pref. Name>  (114) 
Tyrosine-protein kinase JAK3

>  <Target Organism>  (114) 
Homo sapiens

>  <Target Type>  (114) 
SINGLE PROTEIN

>  <Document>  (114) 
CHEMBL1201862

>  <Source>  (114) 
PubChem BioAssays

>  <Max Phase>  (114) 
0

>  <#Ro5 Violations>  (114) 
0

>  <Molecular Weight>  (114) 
315.38

>  <Ligand Efficiency BEI>  (114) 
nan

>  <Ligand Efficiency LE>  (114) 
nan

>  <Ligand Efficiency LLE>  (114) 
nan

>  <Ligand Efficiency SEI>  (114) 
nan

>  <ALogP>  (114) 
3.75

>  <Assay Organism>  (114) 
nan

>  <Assay Tissue ChEMBL ID>  (114) 
nan

>  <Assay Tissue Name>  (114) 
nan

>  <Assay Cell Type>  (114) 
nan

>  <Assay Subcellular Fraction>  (114) 
nan

>  <Organism Tax ID>  (114) 
9606

>  <BAO Format ID>  (114) 
BAO_0000019

>  <Published Type>  (114) 
nan

>  <Published Relation>  (114) 
nan

>  <Published Value>  (114) 
nan

>  <Published Units>  (114) 
nan

>  <Canonical Smiles>  (114) 
C(c1ccccc1)n2nnc(c3ccc4[nH]ncc4c3)c2C5CC5

>  <Data Validity Comment>  (114) 
nan

>  <Document Journal>  (114) 
nan

>  <Document Year>  (114) 
nan

>  <SRC ID>  (114) 
7

>  <UO Units>  (114) 
UO_0000065

>  <Potential Duplicate>  (114) 
False

>  <Class>  (114) 
0

$$$$

     RDKit          2D

 29 32  0  0  0  0  0  0  0  0999 V2000
  -14.5438   -2.9592    0.0000 C   0  0  0  0  0  0  0  0  0  0  0  0
  -13.1172   -2.4957    0.0000 C   0  0  0  0  0  0  0  0  0  0  0  0
  -12.8053   -1.0285    0.0000 C   0  0  0  0  0  0  0  0  0  0  0  0
  -11.3787   -0.5649    0.0000 C   0  0  0  0  0  0  0  0  0  0  0  0
  -11.0669    0.9023    0.0000 C   0  0  0  0  0  0  0  0  0  0  0  0
  -10.2640   -1.5686    0.0000 C   0  0  0  0  0  0  0  0  0  0  0  0
  -10.5759   -3.0359    0.0000 C   0  0  0  0  0  0  0  0  0  0  0  0
   -9.4612   -4.0396    0.0000 N   0  0  0  0  0  0  0  0  0  0  0  0
   -8.0346   -3.5760    0.0000 C   0  0  0  0  0  0  0  0  0  0  0  0
   -7.7227   -2.1088    0.0000 O   0  0  0  0  0  0  0  0  0  0  0  0
   -6.9199   -4.5797    0.0000 N   0  0  0  0  0  0  0  0  0  0  0  0
   -5.4933   -4.1162    0.0000 C   0  0  0  0  0  0  0  0  0  0  0  0
   -4.3786   -5.1199    0.0000 C   0  0  0  0  0  0  0  0  0  0  0  0
   -2.9520   -4.6564    0.0000 C   0  0  0  0  0  0  0  0  0  0  0  0
   -2.6401   -3.1891    0.0000 C   0  0  0  0  0  0  0  0  0  0  0  0
   -3.7548   -2.1855    0.0000 C   0  0  0  0  0  0  0  0  0  0  0  0
   -5.1814   -2.6490    0.0000 C   0  0  0  0  0  0  0  0  0  0  0  0
   -1.2135   -2.7256    0.0000 C   0  0  0  0  0  0  0  0  0  0  0  0
    0.0000   -3.6073    0.0000 C   0  0  0  0  0  0  0  0  0  0  0  0
    0.0000   -5.1073    0.0000 C   0  0  0  0  0  0  0  0  0  0  0  0
    1.2135   -2.7256    0.0000 S   0  0  0  0  0  0  0  0  0  0  0  0
    0.7500   -1.2990    0.0000 C   0  0  0  0  0  0  0  0  0  0  0  0
    1.5000    0.0000    0.0000 N   0  0  0  0  0  0  0  0  0  0  0  0
    0.7500    1.2990    0.0000 C   0  0  0  0  0  0  0  0  0  0  0  0
   -0.7500    1.2990    0.0000 N   0  0  0  0  0  0  0  0  0  0  0  0
   -1.5000    0.0000    0.0000 C   0  0  0  0  0  0  0  0  0  0  0  0
   -3.0000    0.0000    0.0000 N   0  0  0  0  0  0  0  0  0  0  0  0
   -0.7500   -1.2990    0.0000 C   0  0  0  0  0  0  0  0  0  0  0  0
  -12.0025   -3.4994    0.0000 C   0  0  0  0  0  0  0  0  0  0  0  0
  1  2  1  0
  2  3  2  0
  3  4  1  0
  4  5  1  0
  4  6  2  0
  6  7  1  0
  7  8  1  0
  8  9  1  0
  9 10  2  0
  9 11  1  0
 11 12  1  0
 12 13  2  0
 13 14  1  0
 14 15  2  0
 15 16  1  0
 16 17  2  0
 15 18  1  0
 18 19  2  0
 19 20  1  0
 19 21  1  0
 21 22  1  0
 22 23  2  0
 23 24  1  0
 24 25  2  0
 25 26  1  0
 26 27  1  0
 26 28  2  0
  7 29  2  0
 29  2  1  0
 17 12  1  0
 28 18  1  0
 28 22  1  0
M  END
>  <Molecule>  (115) 
CHEMBL371206

>  <Standard Type>  (115) 
Ki

>  <Standard Relation>  (115) 
>

>  <Standard Value>  (115) 
1584.89

>  <Standard Units>  (115) 
nM

>  <pChEMBL Value>  (115) 
nan

>  <Comment>  (115) 
inactive

>  <Compound Key>  (115) 
SID103904294

>  <Assay>  (115) 
CHEMBL1963742

>  <Assay Description>  (115) 
PUBCHEM_BIOASSAY: Navigating the Kinome. (Class of assay: other) Panel member name: JAK3

>  <BAO Format>  (115) 
assay format

>  <Target>  (115) 
CHEMBL2148

>  <Target Pref. Name>  (115) 
Tyrosine-protein kinase JAK3

>  <Target Organism>  (115) 
Homo sapiens

>  <Target Type>  (115) 
SINGLE PROTEIN

>  <Document>  (115) 
CHEMBL1201862

>  <Source>  (115) 
PubChem BioAssays

>  <Max Phase>  (115) 
0

>  <#Ro5 Violations>  (115) 
1

>  <Molecular Weight>  (115) 
403.51

>  <Ligand Efficiency BEI>  (115) 
nan

>  <Ligand Efficiency LE>  (115) 
nan

>  <Ligand Efficiency LLE>  (115) 
nan

>  <Ligand Efficiency SEI>  (115) 
nan

>  <ALogP>  (115) 
5.51

>  <Assay Organism>  (115) 
nan

>  <Assay Tissue ChEMBL ID>  (115) 
nan

>  <Assay Tissue Name>  (115) 
nan

>  <Assay Cell Type>  (115) 
nan

>  <Assay Subcellular Fraction>  (115) 
nan

>  <Organism Tax ID>  (115) 
9606

>  <BAO Format ID>  (115) 
BAO_0000019

>  <Published Type>  (115) 
nan

>  <Published Relation>  (115) 
nan

>  <Published Value>  (115) 
nan

>  <Published Units>  (115) 
nan

>  <Canonical Smiles>  (115) 
Cc1cc(C)cc(NC(=O)Nc2ccc(cc2)c3c(C)sc4ncnc(N)c34)c1

>  <Data Validity Comment>  (115) 
nan

>  <Document Journal>  (115) 
nan

>  <Document Year>  (115) 
nan

>  <SRC ID>  (115) 
7

>  <UO Units>  (115) 
UO_0000065

>  <Potential Duplicate>  (115) 
False

>  <Class>  (115) 
0

$$$$

     RDKit          2D

 19 21  0  0  0  0  0  0  0  0999 V2000
    3.0000    0.0000    0.0000 N   0  0  0  0  0  0  0  0  0  0  0  0
    1.5000    0.0000    0.0000 C   0  0  0  0  0  0  0  0  0  0  0  0
    0.7500   -1.2990    0.0000 C   0  0  0  0  0  0  0  0  0  0  0  0
   -0.7500   -1.2990    0.0000 C   0  0  0  0  0  0  0  0  0  0  0  0
   -1.5000    0.0000    0.0000 C   0  0  0  0  0  0  0  0  0  0  0  0
   -2.9672    0.3119    0.0000 C   0  0  0  0  0  0  0  0  0  0  0  0
   -4.0819   -0.6918    0.0000 C   0  0  0  0  0  0  0  0  0  0  0  0
   -3.7701   -2.1590    0.0000 O   0  0  0  0  0  0  0  0  0  0  0  0
   -5.5085   -0.2283    0.0000 O   0  0  0  0  0  0  0  0  0  0  0  0
   -3.1240    1.8037    0.0000 N   0  0  0  0  0  0  0  0  0  0  0  0
   -1.7537    2.4138    0.0000 N   0  0  0  0  0  0  0  0  0  0  0  0
   -0.7500    1.2990    0.0000 C   0  0  0  0  0  0  0  0  0  0  0  0
    0.7500    1.2990    0.0000 C   0  0  0  0  0  0  0  0  0  0  0  0
   -4.4231    2.5537    0.0000 C   0  0  0  0  0  0  0  0  0  0  0  0
   -4.4231    4.0537    0.0000 C   0  0  0  0  0  0  0  0  0  0  0  0
   -5.7221    4.8037    0.0000 C   0  0  0  0  0  0  0  0  0  0  0  0
   -7.0211    4.0537    0.0000 C   0  0  0  0  0  0  0  0  0  0  0  0
   -7.0211    2.5537    0.0000 C   0  0  0  0  0  0  0  0  0  0  0  0
   -5.7221    1.8037    0.0000 C   0  0  0  0  0  0  0  0  0  0  0  0
  1  2  1  0
  2  3  1  0
  3  4  2  0
  4  5  1  0
  5  6  2  0
  6  7  1  0
  7  8  2  0
  7  9  1  0
  6 10  1  0
 10 11  1  0
 11 12  2  0
 12 13  1  0
 10 14  1  0
 14 15  2  0
 15 16  1  0
 16 17  2  0
 17 18  1  0
 18 19  2  0
 13  2  2  0
 12  5  1  0
 19 14  1  0
M  END
>  <Molecule>  (116) 
CHEMBL1974574

>  <Standard Type>  (116) 
Ki

>  <Standard Relation>  (116) 
>

>  <Standard Value>  (116) 
5011.87

>  <Standard Units>  (116) 
nM

>  <pChEMBL Value>  (116) 
nan

>  <Comment>  (116) 
inactive

>  <Compound Key>  (116) 
SID103905098

>  <Assay>  (116) 
CHEMBL1963742

>  <Assay Description>  (116) 
PUBCHEM_BIOASSAY: Navigating the Kinome. (Class of assay: other) Panel member name: JAK3

>  <BAO Format>  (116) 
assay format

>  <Target>  (116) 
CHEMBL2148

>  <Target Pref. Name>  (116) 
Tyrosine-protein kinase JAK3

>  <Target Organism>  (116) 
Homo sapiens

>  <Target Type>  (116) 
SINGLE PROTEIN

>  <Document>  (116) 
CHEMBL1201862

>  <Source>  (116) 
PubChem BioAssays

>  <Max Phase>  (116) 
0

>  <#Ro5 Violations>  (116) 
0

>  <Molecular Weight>  (116) 
253.26

>  <Ligand Efficiency BEI>  (116) 
nan

>  <Ligand Efficiency LE>  (116) 
nan

>  <Ligand Efficiency LLE>  (116) 
nan

>  <Ligand Efficiency SEI>  (116) 
nan

>  <ALogP>  (116) 
2.31

>  <Assay Organism>  (116) 
nan

>  <Assay Tissue ChEMBL ID>  (116) 
nan

>  <Assay Tissue Name>  (116) 
nan

>  <Assay Cell Type>  (116) 
nan

>  <Assay Subcellular Fraction>  (116) 
nan

>  <Organism Tax ID>  (116) 
9606

>  <BAO Format ID>  (116) 
BAO_0000019

>  <Published Type>  (116) 
nan

>  <Published Relation>  (116) 
nan

>  <Published Value>  (116) 
nan

>  <Published Units>  (116) 
nan

>  <Canonical Smiles>  (116) 
Nc1ccc2c(C(=O)O)n(nc2c1)c3ccccc3

>  <Data Validity Comment>  (116) 
nan

>  <Document Journal>  (116) 
nan

>  <Document Year>  (116) 
nan

>  <SRC ID>  (116) 
7

>  <UO Units>  (116) 
UO_0000065

>  <Potential Duplicate>  (116) 
False

>  <Class>  (116) 
0

$$$$

     RDKit          2D

 26 28  0  0  0  0  0  0  0  0999 V2000
    3.7500   -1.2990    0.0000 C   0  0  0  0  0  0  0  0  0  0  0  0
    3.0000    0.0000    0.0000 C   0  0  0  0  0  0  0  0  0  0  0  0
    1.5000    0.0000    0.0000 C   0  0  0  0  0  0  0  0  0  0  0  0
    0.7500   -1.2990    0.0000 C   0  0  0  0  0  0  0  0  0  0  0  0
   -0.7500   -1.2990    0.0000 C   0  0  0  0  0  0  0  0  0  0  0  0
   -1.5000    0.0000    0.0000 C   0  0  0  0  0  0  0  0  0  0  0  0
   -3.0000    0.0000    0.0000 N   0  0  0  0  0  0  0  0  0  0  0  0
   -3.7500    1.2990    0.0000 C   0  0  0  0  0  0  0  0  0  0  0  0
   -3.0000    2.5981    0.0000 C   0  0  0  0  0  0  0  0  0  0  0  0
   -1.5000    2.5981    0.0000 C   0  0  0  0  0  0  0  0  0  0  0  0
   -0.7500    3.8971    0.0000 N   0  0  0  0  0  0  0  0  0  0  0  0
   -1.5000    5.1962    0.0000 C   0  0  0  0  0  0  0  0  0  0  0  0
   -3.0000    5.1962    0.0000 O   0  0  0  0  0  0  0  0  0  0  0  0
   -0.7500    6.4952    0.0000 N   0  0  0  0  0  0  0  0  0  0  0  0
   -1.5000    7.7942    0.0000 C   0  0  0  0  0  0  0  0  0  0  0  0
   -0.7500    9.0933    0.0000 C   0  0  0  0  0  0  0  0  0  0  0  0
   -1.5000   10.3923    0.0000 C   0  0  0  0  0  0  0  0  0  0  0  0
   -3.0000   10.3923    0.0000 C   0  0  0  0  0  0  0  0  0  0  0  0
   -3.7500    9.0933    0.0000 C   0  0  0  0  0  0  0  0  0  0  0  0
   -3.0000    7.7942    0.0000 N   0  0  0  0  0  0  0  0  0  0  0  0
   -5.2500    9.0933    0.0000 C   0  0  0  0  0  0  0  0  0  0  0  0
   -6.7500    9.0933    0.0000 F   0  0  0  0  0  0  0  0  0  0  0  0
   -5.2500   10.5933    0.0000 F   0  0  0  0  0  0  0  0  0  0  0  0
   -5.2500    7.5933    0.0000 F   0  0  0  0  0  0  0  0  0  0  0  0
   -0.7500    1.2990    0.0000 C   0  0  0  0  0  0  0  0  0  0  0  0
    0.7500    1.2990    0.0000 C   0  0  0  0  0  0  0  0  0  0  0  0
  1  2  1  0
  2  3  1  0
  3  4  2  0
  4  5  1  0
  5  6  2  0
  6  7  1  0
  7  8  2  0
  8  9  1  0
  9 10  2  0
 10 11  1  0
 11 12  1  0
 12 13  2  0
 12 14  1  0
 14 15  1  0
 15 16  2  0
 16 17  1  0
 17 18  2  0
 18 19  1  0
 19 20  2  0
 19 21  1  0
 21 22  1  0
 21 23  1  0
 21 24  1  0
 10 25  1  0
 25 26  2  0
 26  3  1  0
 25  6  1  0
 20 15  1  0
M  END
>  <Molecule>  (117) 
CHEMBL2000934

>  <Standard Type>  (117) 
Ki

>  <Standard Relation>  (117) 
>

>  <Standard Value>  (117) 
5011.87

>  <Standard Units>  (117) 
nM

>  <pChEMBL Value>  (117) 
nan

>  <Comment>  (117) 
inactive

>  <Compound Key>  (117) 
SID103904876

>  <Assay>  (117) 
CHEMBL1963742

>  <Assay Description>  (117) 
PUBCHEM_BIOASSAY: Navigating the Kinome. (Class of assay: other) Panel member name: JAK3

>  <BAO Format>  (117) 
assay format

>  <Target>  (117) 
CHEMBL2148

>  <Target Pref. Name>  (117) 
Tyrosine-protein kinase JAK3

>  <Target Organism>  (117) 
Homo sapiens

>  <Target Type>  (117) 
SINGLE PROTEIN

>  <Document>  (117) 
CHEMBL1201862

>  <Source>  (117) 
PubChem BioAssays

>  <Max Phase>  (117) 
0

>  <#Ro5 Violations>  (117) 
0

>  <Molecular Weight>  (117) 
360.34

>  <Ligand Efficiency BEI>  (117) 
nan

>  <Ligand Efficiency LE>  (117) 
nan

>  <Ligand Efficiency LLE>  (117) 
nan

>  <Ligand Efficiency SEI>  (117) 
nan

>  <ALogP>  (117) 
4.86

>  <Assay Organism>  (117) 
nan

>  <Assay Tissue ChEMBL ID>  (117) 
nan

>  <Assay Tissue Name>  (117) 
nan

>  <Assay Cell Type>  (117) 
nan

>  <Assay Subcellular Fraction>  (117) 
nan

>  <Organism Tax ID>  (117) 
9606

>  <BAO Format ID>  (117) 
BAO_0000019

>  <Published Type>  (117) 
nan

>  <Published Relation>  (117) 
nan

>  <Published Value>  (117) 
nan

>  <Published Units>  (117) 
nan

>  <Canonical Smiles>  (117) 
CCc1ccc2nccc(NC(=O)Nc3cccc(n3)C(F)(F)F)c2c1

>  <Data Validity Comment>  (117) 
nan

>  <Document Journal>  (117) 
nan

>  <Document Year>  (117) 
nan

>  <SRC ID>  (117) 
7

>  <UO Units>  (117) 
UO_0000065

>  <Potential Duplicate>  (117) 
False

>  <Class>  (117) 
0

$$$$

     RDKit          2D

 25 26  0  0  0  0  0  0  0  0999 V2000
    5.2500   -1.2990    0.0000 C   0  0  0  0  0  0  0  0  0  0  0  0
    3.7500   -1.2990    0.0000 C   0  0  0  0  0  0  0  0  0  0  0  0
    3.0000    0.0000    0.0000 O   0  0  0  0  0  0  0  0  0  0  0  0
    1.5000    0.0000    0.0000 C   0  0  0  0  0  0  0  0  0  0  0  0
    0.7500   -1.2990    0.0000 N   0  0  0  0  0  0  0  0  0  0  0  0
   -0.7500   -1.2990    0.0000 C   0  0  0  0  0  0  0  0  0  0  0  0
   -1.5000    0.0000    0.0000 C   0  0  0  0  0  0  0  0  0  0  0  0
   -0.7500    1.2990    0.0000 C   0  0  0  0  0  0  0  0  0  0  0  0
   -1.5000    2.5981    0.0000 N   0  0  0  0  0  0  0  0  0  0  0  0
    0.7500    1.2990    0.0000 C   0  0  0  0  0  0  0  0  0  0  0  0
    1.5000    2.5981    0.0000 Cl  0  0  0  0  0  0  0  0  0  0  0  0
   -1.5000   -2.5981    0.0000 C   0  0  0  0  0  0  0  0  0  0  0  0
   -0.7500   -3.8971    0.0000 O   0  0  0  0  0  0  0  0  0  0  0  0
   -3.0000   -2.5981    0.0000 N   0  0  0  0  0  0  0  0  0  0  0  0
   -3.7500   -3.8971    0.0000 C   0  0  0  0  0  0  0  0  0  0  0  0
   -5.2500   -3.8971    0.0000 C   0  0  0  0  0  0  0  0  0  0  0  0
   -6.0000   -2.5981    0.0000 C   0  0  0  0  0  0  0  0  0  0  0  0
   -7.5000   -2.5981    0.0000 C   0  0  0  0  0  0  0  0  0  0  0  0
   -8.2500   -3.8971    0.0000 C   0  0  0  0  0  0  0  0  0  0  0  0
   -7.5000   -5.1962    0.0000 C   0  0  0  0  0  0  0  0  0  0  0  0
   -6.0000   -5.1962    0.0000 C   0  0  0  0  0  0  0  0  0  0  0  0
   -9.7500   -3.8971    0.0000 S   0  0  0  0  0  0  0  0  0  0  0  0
   -9.7500   -5.3971    0.0000 O   0  0  0  0  0  0  0  0  0  0  0  0
   -9.7500   -2.3971    0.0000 O   0  0  0  0  0  0  0  0  0  0  0  0
  -11.2500   -3.8971    0.0000 C   0  0  0  0  0  0  0  0  0  0  0  0
  1  2  1  0
  2  3  1  0
  3  4  1  0
  4  5  2  0
  5  6  1  0
  6  7  2  0
  7  8  1  0
  8  9  1  0
  8 10  2  0
 10 11  1  0
  6 12  1  0
 12 13  2  0
 12 14  1  0
 14 15  1  0
 15 16  1  0
 16 17  2  0
 17 18  1  0
 18 19  2  0
 19 20  1  0
 20 21  2  0
 19 22  1  0
 22 23  2  0
 22 24  2  0
 22 25  1  0
 10  4  1  0
 21 16  1  0
M  END
>  <Molecule>  (118) 
CHEMBL377383

>  <Standard Type>  (118) 
Ki

>  <Standard Relation>  (118) 
>

>  <Standard Value>  (118) 
1584.89

>  <Standard Units>  (118) 
nM

>  <pChEMBL Value>  (118) 
nan

>  <Comment>  (118) 
inactive

>  <Compound Key>  (118) 
SID103905002

>  <Assay>  (118) 
CHEMBL1963742

>  <Assay Description>  (118) 
PUBCHEM_BIOASSAY: Navigating the Kinome. (Class of assay: other) Panel member name: JAK3

>  <BAO Format>  (118) 
assay format

>  <Target>  (118) 
CHEMBL2148

>  <Target Pref. Name>  (118) 
Tyrosine-protein kinase JAK3

>  <Target Organism>  (118) 
Homo sapiens

>  <Target Type>  (118) 
SINGLE PROTEIN

>  <Document>  (118) 
CHEMBL1201862

>  <Source>  (118) 
PubChem BioAssays

>  <Max Phase>  (118) 
0

>  <#Ro5 Violations>  (118) 
0

>  <Molecular Weight>  (118) 
383.86

>  <Ligand Efficiency BEI>  (118) 
nan

>  <Ligand Efficiency LE>  (118) 
nan

>  <Ligand Efficiency LLE>  (118) 
nan

>  <Ligand Efficiency SEI>  (118) 
nan

>  <ALogP>  (118) 
2.05

>  <Assay Organism>  (118) 
nan

>  <Assay Tissue ChEMBL ID>  (118) 
nan

>  <Assay Tissue Name>  (118) 
nan

>  <Assay Cell Type>  (118) 
nan

>  <Assay Subcellular Fraction>  (118) 
nan

>  <Organism Tax ID>  (118) 
9606

>  <BAO Format ID>  (118) 
BAO_0000019

>  <Published Type>  (118) 
nan

>  <Published Relation>  (118) 
nan

>  <Published Value>  (118) 
nan

>  <Published Units>  (118) 
nan

>  <Canonical Smiles>  (118) 
CCOc1nc(cc(N)c1Cl)C(=O)NCc2ccc(cc2)S(=O)(=O)C

>  <Data Validity Comment>  (118) 
nan

>  <Document Journal>  (118) 
nan

>  <Document Year>  (118) 
nan

>  <SRC ID>  (118) 
7

>  <UO Units>  (118) 
UO_0000065

>  <Potential Duplicate>  (118) 
False

>  <Class>  (118) 
0

$$$$

     RDKit          2D

 28 30  0  0  0  0  0  0  0  0999 V2000
   -4.5960   -3.5353    0.0000 C   0  0  0  0  0  0  0  0  0  0  0  0
   -3.2970   -4.2853    0.0000 C   0  0  0  0  0  0  0  0  0  0  0  0
   -1.9979   -3.5353    0.0000 N   0  0  0  0  0  0  0  0  0  0  0  0
   -0.6989   -4.2853    0.0000 C   0  0  0  0  0  0  0  0  0  0  0  0
    0.7500   -3.8971    0.0000 C   0  0  0  0  0  0  0  0  0  0  0  0
    1.5000   -2.5981    0.0000 N   0  0  0  0  0  0  0  0  0  0  0  0
    0.7500   -1.2990    0.0000 C   0  0  0  0  0  0  0  0  0  0  0  0
    1.5000    0.0000    0.0000 C   0  0  0  0  0  0  0  0  0  0  0  0
    0.7500    1.2990    0.0000 C   0  0  0  0  0  0  0  0  0  0  0  0
   -0.7500    1.2990    0.0000 N   0  0  0  0  0  0  0  0  0  0  0  0
   -1.5000    0.0000    0.0000 C   0  0  0  0  0  0  0  0  0  0  0  0
   -3.0000    0.0000    0.0000 N   0  0  0  0  0  0  0  0  0  0  0  0
   -3.7500    1.2990    0.0000 C   0  0  0  0  0  0  0  0  0  0  0  0
   -3.0000    2.5981    0.0000 C   0  0  0  0  0  0  0  0  0  0  0  0
   -3.7500    3.8971    0.0000 C   0  0  0  0  0  0  0  0  0  0  0  0
   -5.2500    3.8971    0.0000 C   0  0  0  0  0  0  0  0  0  0  0  0
   -6.0000    2.5981    0.0000 C   0  0  0  0  0  0  0  0  0  0  0  0
   -7.5000    2.5981    0.0000 C   0  0  0  0  0  0  0  0  0  0  0  0
   -5.2500    1.2990    0.0000 C   0  0  0  0  0  0  0  0  0  0  0  0
   -0.7500   -1.2990    0.0000 N   0  0  0  0  0  0  0  0  0  0  0  0
    1.1382   -5.3460    0.0000 C   0  0  0  0  0  0  0  0  0  0  0  0
    2.4373   -6.0960    0.0000 O   0  0  0  0  0  0  0  0  0  0  0  0
   -0.3107   -5.7342    0.0000 C   0  0  0  0  0  0  0  0  0  0  0  0
   -1.0607   -7.0333    0.0000 O   0  0  0  0  0  0  0  0  0  0  0  0
   -3.2970   -5.7853    0.0000 C   0  0  0  0  0  0  0  0  0  0  0  0
   -4.7970   -5.7853    0.0000 C   0  0  0  0  0  0  0  0  0  0  0  0
   -1.7970   -5.7853    0.0000 C   0  0  0  0  0  0  0  0  0  0  0  0
   -3.2970   -7.2853    0.0000 C   0  0  0  0  0  0  0  0  0  0  0  0
  1  2  1  0
  2  3  1  0
  3  4  1  0
  4  5  2  0
  5  6  1  0
  6  7  1  0
  7  8  2  0
  8  9  1  0
  9 10  2  0
 10 11  1  0
 11 12  1  0
 12 13  1  0
 13 14  2  0
 14 15  1  0
 15 16  2  0
 16 17  1  0
 17 18  1  0
 17 19  2  0
 11 20  2  0
  5 21  1  0
 21 22  2  0
 21 23  1  0
 23 24  2  0
  2 25  1  0
 25 26  1  0
 25 27  1  0
 25 28  1  0
 23  4  1  0
 20  7  1  0
 19 13  1  0
M  END
>  <Molecule>  (119) 
CHEMBL1969523

>  <Standard Type>  (119) 
Ki

>  <Standard Relation>  (119) 
>

>  <Standard Value>  (119) 
1584.89

>  <Standard Units>  (119) 
nM

>  <pChEMBL Value>  (119) 
nan

>  <Comment>  (119) 
inactive

>  <Compound Key>  (119) 
SID103904937

>  <Assay>  (119) 
CHEMBL1963742

>  <Assay Description>  (119) 
PUBCHEM_BIOASSAY: Navigating the Kinome. (Class of assay: other) Panel member name: JAK3

>  <BAO Format>  (119) 
assay format

>  <Target>  (119) 
CHEMBL2148

>  <Target Pref. Name>  (119) 
Tyrosine-protein kinase JAK3

>  <Target Organism>  (119) 
Homo sapiens

>  <Target Type>  (119) 
SINGLE PROTEIN

>  <Document>  (119) 
CHEMBL1201862

>  <Source>  (119) 
PubChem BioAssays

>  <Max Phase>  (119) 
0

>  <#Ro5 Violations>  (119) 
0

>  <Molecular Weight>  (119) 
379.46

>  <Ligand Efficiency BEI>  (119) 
nan

>  <Ligand Efficiency LE>  (119) 
nan

>  <Ligand Efficiency LLE>  (119) 
nan

>  <Ligand Efficiency SEI>  (119) 
nan

>  <ALogP>  (119) 
3.71

>  <Assay Organism>  (119) 
nan

>  <Assay Tissue ChEMBL ID>  (119) 
nan

>  <Assay Tissue Name>  (119) 
nan

>  <Assay Cell Type>  (119) 
nan

>  <Assay Subcellular Fraction>  (119) 
nan

>  <Organism Tax ID>  (119) 
9606

>  <BAO Format ID>  (119) 
BAO_0000019

>  <Published Type>  (119) 
nan

>  <Published Relation>  (119) 
nan

>  <Published Value>  (119) 
nan

>  <Published Units>  (119) 
nan

>  <Canonical Smiles>  (119) 
CC(NC1=C(Nc2ccnc(Nc3cccc(C)c3)n2)C(=O)C1=O)C(C)(C)C

>  <Data Validity Comment>  (119) 
nan

>  <Document Journal>  (119) 
nan

>  <Document Year>  (119) 
nan

>  <SRC ID>  (119) 
7

>  <UO Units>  (119) 
UO_0000065

>  <Potential Duplicate>  (119) 
False

>  <Class>  (119) 
0

$$$$

     RDKit          2D

 32 36  0  0  0  0  0  0  0  0999 V2000
    8.0406   12.1352    0.0000 C   0  0  0  0  0  0  0  0  0  0  0  0
    7.5771   10.7086    0.0000 C   0  0  0  0  0  0  0  0  0  0  0  0
    8.5808    9.5939    0.0000 C   0  0  0  0  0  0  0  0  0  0  0  0
    8.1173    8.1673    0.0000 C   0  0  0  0  0  0  0  0  0  0  0  0
    6.6501    7.8555    0.0000 C   0  0  0  0  0  0  0  0  0  0  0  0
    5.6464    8.9702    0.0000 C   0  0  0  0  0  0  0  0  0  0  0  0
    4.1791    8.6583    0.0000 N   0  0  0  0  0  0  0  0  0  0  0  0
    3.7156    7.2317    0.0000 C   0  0  0  0  0  0  0  0  0  0  0  0
    4.7193    6.1170    0.0000 O   0  0  0  0  0  0  0  0  0  0  0  0
    2.2484    6.9199    0.0000 N   0  0  0  0  0  0  0  0  0  0  0  0
    1.7849    5.4933    0.0000 C   0  0  0  0  0  0  0  0  0  0  0  0
    0.3177    5.1814    0.0000 C   0  0  0  0  0  0  0  0  0  0  0  0
   -0.1459    3.7548    0.0000 C   0  0  0  0  0  0  0  0  0  0  0  0
    0.8578    2.6401    0.0000 C   0  0  0  0  0  0  0  0  0  0  0  0
    2.3250    2.9520    0.0000 C   0  0  0  0  0  0  0  0  0  0  0  0
    2.7886    4.3786    0.0000 C   0  0  0  0  0  0  0  0  0  0  0  0
    0.3943    1.2135    0.0000 C   0  0  0  0  0  0  0  0  0  0  0  0
    1.2760    0.0000    0.0000 C   0  0  0  0  0  0  0  0  0  0  0  0
    0.3943   -1.2135    0.0000 S   0  0  0  0  0  0  0  0  0  0  0  0
   -1.0323   -0.7500    0.0000 C   0  0  0  0  0  0  0  0  0  0  0  0
   -2.3313   -1.5000    0.0000 C   0  0  0  0  0  0  0  0  0  0  0  0
   -3.6304   -0.7500    0.0000 C   0  0  0  0  0  0  0  0  0  0  0  0
   -3.6304    0.7500    0.0000 N   0  0  0  0  0  0  0  0  0  0  0  0
   -2.3313    1.5000    0.0000 C   0  0  0  0  0  0  0  0  0  0  0  0
   -2.3313    3.0000    0.0000 N   0  0  0  0  0  0  0  0  0  0  0  0
   -1.0323    0.7500    0.0000 C   0  0  0  0  0  0  0  0  0  0  0  0
   -2.3313   -3.0000    0.0000 C   0  0  0  0  0  0  0  0  0  0  0  0
   -1.1178   -3.8817    0.0000 C   0  0  0  0  0  0  0  0  0  0  0  0
   -1.5813   -5.3083    0.0000 N   0  0  0  0  0  0  0  0  0  0  0  0
   -3.0813   -5.3083    0.0000 N   0  0  0  0  0  0  0  0  0  0  0  0
   -3.5449   -3.8817    0.0000 C   0  0  0  0  0  0  0  0  0  0  0  0
    6.1099   10.3968    0.0000 C   0  0  0  0  0  0  0  0  0  0  0  0
  1  2  1  0
  2  3  2  0
  3  4  1  0
  4  5  2  0
  5  6  1  0
  6  7  1  0
  7  8  1  0
  8  9  2  0
  8 10  1  0
 10 11  1  0
 11 12  2  0
 12 13  1  0
 13 14  2  0
 14 15  1  0
 15 16  2  0
 14 17  1  0
 17 18  2  0
 18 19  1  0
 19 20  1  0
 20 21  2  0
 21 22  1  0
 22 23  2  0
 23 24  1  0
 24 25  1  0
 24 26  2  0
 21 27  1  0
 27 28  1  0
 28 29  2  0
 29 30  1  0
 30 31  1  0
  6 32  2  0
 32  2  1  0
 16 11  1  0
 26 17  1  0
 26 20  1  0
 31 27  2  0
M  END
>  <Molecule>  (120) 
CHEMBL1969102

>  <Standard Type>  (120) 
Ki

>  <Standard Relation>  (120) 
=

>  <Standard Value>  (120) 
125.89

>  <Standard Units>  (120) 
nM

>  <pChEMBL Value>  (120) 
6.9

>  <Comment>  (120) 
active

>  <Compound Key>  (120) 
SID103904308

>  <Assay>  (120) 
CHEMBL1963742

>  <Assay Description>  (120) 
PUBCHEM_BIOASSAY: Navigating the Kinome. (Class of assay: other) Panel member name: JAK3

>  <BAO Format>  (120) 
assay format

>  <Target>  (120) 
CHEMBL2148

>  <Target Pref. Name>  (120) 
Tyrosine-protein kinase JAK3

>  <Target Organism>  (120) 
Homo sapiens

>  <Target Type>  (120) 
SINGLE PROTEIN

>  <Document>  (120) 
CHEMBL1201862

>  <Source>  (120) 
PubChem BioAssays

>  <Max Phase>  (120) 
0

>  <#Ro5 Violations>  (120) 
1

>  <Molecular Weight>  (120) 
440.53

>  <Ligand Efficiency BEI>  (120) 
nan

>  <Ligand Efficiency LE>  (120) 
nan

>  <Ligand Efficiency LLE>  (120) 
nan

>  <Ligand Efficiency SEI>  (120) 
nan

>  <ALogP>  (120) 
5.89

>  <Assay Organism>  (120) 
nan

>  <Assay Tissue ChEMBL ID>  (120) 
nan

>  <Assay Tissue Name>  (120) 
nan

>  <Assay Cell Type>  (120) 
nan

>  <Assay Subcellular Fraction>  (120) 
nan

>  <Organism Tax ID>  (120) 
9606

>  <BAO Format ID>  (120) 
BAO_0000019

>  <Published Type>  (120) 
nan

>  <Published Relation>  (120) 
nan

>  <Published Value>  (120) 
nan

>  <Published Units>  (120) 
nan

>  <Canonical Smiles>  (120) 
Cc1cccc(NC(=O)Nc2ccc(cc2)c3csc4c(cnc(N)c34)c5cn[nH]c5)c1

>  <Data Validity Comment>  (120) 
nan

>  <Document Journal>  (120) 
nan

>  <Document Year>  (120) 
nan

>  <SRC ID>  (120) 
7

>  <UO Units>  (120) 
UO_0000065

>  <Potential Duplicate>  (120) 
False

>  <Class>  (120) 
1

$$$$

     RDKit          2D

 25 28  0  0  0  0  0  0  0  0999 V2000
   -4.6883    2.2939    0.0000 C   0  0  0  0  0  0  0  0  0  0  0  0
   -3.5736    1.2902    0.0000 C   0  0  0  0  0  0  0  0  0  0  0  0
   -2.1470    1.7537    0.0000 C   0  0  0  0  0  0  0  0  0  0  0  0
   -1.8351    3.2209    0.0000 N   0  0  0  0  0  0  0  0  0  0  0  0
   -0.4086    3.6844    0.0000 C   0  0  0  0  0  0  0  0  0  0  0  0
   -0.0967    5.1517    0.0000 N   0  0  0  0  0  0  0  0  0  0  0  0
    1.3299    5.6152    0.0000 C   0  0  0  0  0  0  0  0  0  0  0  0
    2.4446    4.6115    0.0000 C   0  0  0  0  0  0  0  0  0  0  0  0
    3.8712    5.0750    0.0000 C   0  0  0  0  0  0  0  0  0  0  0  0
    4.1831    6.5422    0.0000 C   0  0  0  0  0  0  0  0  0  0  0  0
    5.6097    7.0058    0.0000 N   0  0  0  0  0  0  0  0  0  0  0  0
    6.7244    6.0021    0.0000 C   0  0  0  0  0  0  0  0  0  0  0  0
    8.1510    6.4656    0.0000 C   0  0  0  0  0  0  0  0  0  0  0  0
    8.4628    7.9328    0.0000 O   0  0  0  0  0  0  0  0  0  0  0  0
    7.3481    8.9365    0.0000 C   0  0  0  0  0  0  0  0  0  0  0  0
    5.9215    8.4730    0.0000 C   0  0  0  0  0  0  0  0  0  0  0  0
    3.0684    7.5459    0.0000 C   0  0  0  0  0  0  0  0  0  0  0  0
    3.3802    9.0132    0.0000 Cl  0  0  0  0  0  0  0  0  0  0  0  0
    1.6418    7.0824    0.0000 C   0  0  0  0  0  0  0  0  0  0  0  0
    0.7062    2.6807    0.0000 N   0  0  0  0  0  0  0  0  0  0  0  0
    0.3943    1.2135    0.0000 C   0  0  0  0  0  0  0  0  0  0  0  0
    1.2760    0.0000    0.0000 N   0  0  0  0  0  0  0  0  0  0  0  0
    0.3943   -1.2135    0.0000 C   0  0  0  0  0  0  0  0  0  0  0  0
   -1.0323   -0.7500    0.0000 C   0  0  0  0  0  0  0  0  0  0  0  0
   -1.0323    0.7500    0.0000 C   0  0  0  0  0  0  0  0  0  0  0  0
  1  2  1  0
  2  3  1  0
  3  4  2  0
  4  5  1  0
  5  6  1  0
  6  7  1  0
  7  8  2  0
  8  9  1  0
  9 10  2  0
 10 11  1  0
 11 12  1  0
 12 13  1  0
 13 14  1  0
 14 15  1  0
 15 16  1  0
 10 17  1  0
 17 18  1  0
 17 19  2  0
  5 20  2  0
 20 21  1  0
 21 22  1  0
 22 23  1  0
 23 24  2  0
 24 25  1  0
 25  3  1  0
 19  7  1  0
 16 11  1  0
 25 21  2  0
M  END
>  <Molecule>  (121) 
CHEMBL2004118

>  <Standard Type>  (121) 
Ki

>  <Standard Relation>  (121) 
=

>  <Standard Value>  (121) 
3162.28

>  <Standard Units>  (121) 
nM

>  <pChEMBL Value>  (121) 
5.5

>  <Comment>  (121) 
active

>  <Compound Key>  (121) 
SID103905011

>  <Assay>  (121) 
CHEMBL1963742

>  <Assay Description>  (121) 
PUBCHEM_BIOASSAY: Navigating the Kinome. (Class of assay: other) Panel member name: JAK3

>  <BAO Format>  (121) 
assay format

>  <Target>  (121) 
CHEMBL2148

>  <Target Pref. Name>  (121) 
Tyrosine-protein kinase JAK3

>  <Target Organism>  (121) 
Homo sapiens

>  <Target Type>  (121) 
SINGLE PROTEIN

>  <Document>  (121) 
CHEMBL1201862

>  <Source>  (121) 
PubChem BioAssays

>  <Max Phase>  (121) 
0

>  <#Ro5 Violations>  (121) 
0

>  <Molecular Weight>  (121) 
357.85

>  <Ligand Efficiency BEI>  (121) 
nan

>  <Ligand Efficiency LE>  (121) 
nan

>  <Ligand Efficiency LLE>  (121) 
nan

>  <Ligand Efficiency SEI>  (121) 
nan

>  <ALogP>  (121) 
3.75

>  <Assay Organism>  (121) 
nan

>  <Assay Tissue ChEMBL ID>  (121) 
nan

>  <Assay Tissue Name>  (121) 
nan

>  <Assay Cell Type>  (121) 
nan

>  <Assay Subcellular Fraction>  (121) 
nan

>  <Organism Tax ID>  (121) 
9606

>  <BAO Format ID>  (121) 
BAO_0000019

>  <Published Type>  (121) 
nan

>  <Published Relation>  (121) 
nan

>  <Published Value>  (121) 
nan

>  <Published Units>  (121) 
nan

>  <Canonical Smiles>  (121) 
CCc1nc(Nc2ccc(N3CCOCC3)c(Cl)c2)nc4[nH]ccc14

>  <Data Validity Comment>  (121) 
nan

>  <Document Journal>  (121) 
nan

>  <Document Year>  (121) 
nan

>  <SRC ID>  (121) 
7

>  <UO Units>  (121) 
UO_0000065

>  <Potential Duplicate>  (121) 
False

>  <Class>  (121) 
1

$$$$

     RDKit          2D

 28 31  0  0  0  0  0  0  0  0999 V2000
    9.0000   -2.5981    0.0000 C   0  0  0  0  0  0  0  0  0  0  0  0
    8.2500   -1.2990    0.0000 C   0  0  0  0  0  0  0  0  0  0  0  0
    6.7500   -1.2990    0.0000 N   0  0  0  0  0  0  0  0  0  0  0  0
    6.0000   -2.5981    0.0000 C   0  0  0  0  0  0  0  0  0  0  0  0
    6.7500   -3.8971    0.0000 C   0  0  0  0  0  0  0  0  0  0  0  0
    6.0000    0.0000    0.0000 C   0  0  0  0  0  0  0  0  0  0  0  0
    4.5000    0.0000    0.0000 C   0  0  0  0  0  0  0  0  0  0  0  0
    3.0000    0.0000    0.0000 C   0  0  0  0  0  0  0  0  0  0  0  0
    1.5000    0.0000    0.0000 C   0  0  0  0  0  0  0  0  0  0  0  0
    0.7500   -1.2990    0.0000 C   0  0  0  0  0  0  0  0  0  0  0  0
   -0.7500   -1.2990    0.0000 C   0  0  0  0  0  0  0  0  0  0  0  0
   -1.5000    0.0000    0.0000 C   0  0  0  0  0  0  0  0  0  0  0  0
   -2.9672    0.3119    0.0000 C   0  0  0  0  0  0  0  0  0  0  0  0
   -3.1240    1.8037    0.0000 C   0  0  0  0  0  0  0  0  0  0  0  0
   -4.1277    2.9184    0.0000 C   0  0  0  0  0  0  0  0  0  0  0  0
   -3.3777    4.2174    0.0000 N   0  0  0  0  0  0  0  0  0  0  0  0
   -1.9105    3.9055    0.0000 N   0  0  0  0  0  0  0  0  0  0  0  0
   -1.7537    2.4138    0.0000 C   0  0  0  0  0  0  0  0  0  0  0  0
   -0.7500    1.2990    0.0000 C   0  0  0  0  0  0  0  0  0  0  0  0
    0.7500    1.2990    0.0000 C   0  0  0  0  0  0  0  0  0  0  0  0
   -5.6195    2.7616    0.0000 C   0  0  0  0  0  0  0  0  0  0  0  0
   -6.5012    3.9751    0.0000 C   0  0  0  0  0  0  0  0  0  0  0  0
   -7.9930    3.8183    0.0000 C   0  0  0  0  0  0  0  0  0  0  0  0
   -8.6031    2.4480    0.0000 C   0  0  0  0  0  0  0  0  0  0  0  0
   -7.7214    1.2345    0.0000 N   0  0  0  0  0  0  0  0  0  0  0  0
   -6.2296    1.3913    0.0000 C   0  0  0  0  0  0  0  0  0  0  0  0
  -10.0948    2.2912    0.0000 C   0  0  0  0  0  0  0  0  0  0  0  0
  -11.5866    2.1344    0.0000 N   0  0  0  0  0  0  0  0  0  0  0  0
  1  2  1  0
  2  3  1  0
  3  4  1  0
  4  5  1  0
  3  6  1  0
  6  7  1  0
  7  8  3  0
  8  9  1  0
  9 10  2  0
 10 11  1  0
 11 12  2  0
 12 13  1  0
 13 14  1  0
 14 15  1  0
 15 16  2  0
 16 17  1  0
 17 18  1  0
 18 19  1  0
 19 20  2  0
 15 21  1  0
 21 22  2  0
 22 23  1  0
 23 24  2  0
 24 25  1  0
 25 26  2  0
 24 27  1  0
 27 28  3  0
 20  9  1  0
 19 12  1  0
 18 14  2  0
 26 21  1  0
M  END
>  <Molecule>  (122) 
CHEMBL2007044

>  <Standard Type>  (122) 
Ki

>  <Standard Relation>  (122) 
>

>  <Standard Value>  (122) 
1584.89

>  <Standard Units>  (122) 
nM

>  <pChEMBL Value>  (122) 
nan

>  <Comment>  (122) 
inactive

>  <Compound Key>  (122) 
SID103904810

>  <Assay>  (122) 
CHEMBL1963742

>  <Assay Description>  (122) 
PUBCHEM_BIOASSAY: Navigating the Kinome. (Class of assay: other) Panel member name: JAK3

>  <BAO Format>  (122) 
assay format

>  <Target>  (122) 
CHEMBL2148

>  <Target Pref. Name>  (122) 
Tyrosine-protein kinase JAK3

>  <Target Organism>  (122) 
Homo sapiens

>  <Target Type>  (122) 
SINGLE PROTEIN

>  <Document>  (122) 
CHEMBL1201862

>  <Source>  (122) 
PubChem BioAssays

>  <Max Phase>  (122) 
0

>  <#Ro5 Violations>  (122) 
0

>  <Molecular Weight>  (122) 
367.46

>  <Ligand Efficiency BEI>  (122) 
nan

>  <Ligand Efficiency LE>  (122) 
nan

>  <Ligand Efficiency LLE>  (122) 
nan

>  <Ligand Efficiency SEI>  (122) 
nan

>  <ALogP>  (122) 
3.61

>  <Assay Organism>  (122) 
nan

>  <Assay Tissue ChEMBL ID>  (122) 
nan

>  <Assay Tissue Name>  (122) 
nan

>  <Assay Cell Type>  (122) 
nan

>  <Assay Subcellular Fraction>  (122) 
nan

>  <Organism Tax ID>  (122) 
9606

>  <BAO Format ID>  (122) 
BAO_0000019

>  <Published Type>  (122) 
nan

>  <Published Relation>  (122) 
nan

>  <Published Value>  (122) 
nan

>  <Published Units>  (122) 
nan

>  <Canonical Smiles>  (122) 
CCN(CC)CC#Cc1ccc2Cc3c(n[nH]c3c2c1)c4ccc(nc4)C#N

>  <Data Validity Comment>  (122) 
nan

>  <Document Journal>  (122) 
nan

>  <Document Year>  (122) 
nan

>  <SRC ID>  (122) 
7

>  <UO Units>  (122) 
UO_0000065

>  <Potential Duplicate>  (122) 
False

>  <Class>  (122) 
0

$$$$

     RDKit          2D

 23 25  0  0  0  0  0  0  0  0999 V2000
   -5.1962   -9.6073    0.0000 C   0  0  0  0  0  0  0  0  0  0  0  0
   -3.8971  -10.3573    0.0000 O   0  0  0  0  0  0  0  0  0  0  0  0
   -2.5981   -9.6073    0.0000 C   0  0  0  0  0  0  0  0  0  0  0  0
   -2.5981   -8.1073    0.0000 C   0  0  0  0  0  0  0  0  0  0  0  0
   -1.2990   -7.3573    0.0000 C   0  0  0  0  0  0  0  0  0  0  0  0
   -1.2990   -5.8573    0.0000 C   0  0  0  0  0  0  0  0  0  0  0  0
   -0.0000   -5.1073    0.0000 C   0  0  0  0  0  0  0  0  0  0  0  0
    1.2990   -5.8573    0.0000 C   0  0  0  0  0  0  0  0  0  0  0  0
    2.5981   -6.6073    0.0000 N   0  0  0  0  0  0  0  0  0  0  0  0
   -0.0000   -3.6073    0.0000 C   0  0  0  0  0  0  0  0  0  0  0  0
    1.2135   -2.7256    0.0000 N   0  0  0  0  0  0  0  0  0  0  0  0
    0.7500   -1.2990    0.0000 C   0  0  0  0  0  0  0  0  0  0  0  0
    1.5000    0.0000    0.0000 C   0  0  0  0  0  0  0  0  0  0  0  0
    0.7500    1.2990    0.0000 C   0  0  0  0  0  0  0  0  0  0  0  0
   -0.7500    1.2990    0.0000 C   0  0  0  0  0  0  0  0  0  0  0  0
   -1.5000    0.0000    0.0000 C   0  0  0  0  0  0  0  0  0  0  0  0
   -0.7500   -1.2990    0.0000 C   0  0  0  0  0  0  0  0  0  0  0  0
   -1.2135   -2.7256    0.0000 N   0  0  0  0  0  0  0  0  0  0  0  0
   -0.0000   -8.1073    0.0000 C   0  0  0  0  0  0  0  0  0  0  0  0
    1.2990   -7.3573    0.0000 Br  0  0  0  0  0  0  0  0  0  0  0  0
   -0.0000   -9.6073    0.0000 C   0  0  0  0  0  0  0  0  0  0  0  0
   -1.2990  -10.3573    0.0000 C   0  0  0  0  0  0  0  0  0  0  0  0
   -1.2990  -11.8573    0.0000 O   0  0  0  0  0  0  0  0  0  0  0  0
  1  2  1  0
  2  3  1  0
  3  4  2  0
  4  5  1  0
  5  6  1  0
  6  7  2  3
  7  8  1  0
  8  9  3  0
  7 10  1  0
 10 11  2  0
 11 12  1  0
 12 13  2  0
 13 14  1  0
 14 15  2  0
 15 16  1  0
 16 17  2  0
 17 18  1  0
  5 19  2  0
 19 20  1  0
 19 21  1  0
 21 22  2  0
 22 23  1  0
 22  3  1  0
 18 10  1  0
 17 12  1  0
M  END
>  <Molecule>  (123) 
CHEMBL1994241

>  <Standard Type>  (123) 
Ki

>  <Standard Relation>  (123) 
=

>  <Standard Value>  (123) 
398.11

>  <Standard Units>  (123) 
nM

>  <pChEMBL Value>  (123) 
6.4

>  <Comment>  (123) 
active

>  <Compound Key>  (123) 
SID103904926

>  <Assay>  (123) 
CHEMBL1963742

>  <Assay Description>  (123) 
PUBCHEM_BIOASSAY: Navigating the Kinome. (Class of assay: other) Panel member name: JAK3

>  <BAO Format>  (123) 
assay format

>  <Target>  (123) 
CHEMBL2148

>  <Target Pref. Name>  (123) 
Tyrosine-protein kinase JAK3

>  <Target Organism>  (123) 
Homo sapiens

>  <Target Type>  (123) 
SINGLE PROTEIN

>  <Document>  (123) 
CHEMBL1201862

>  <Source>  (123) 
PubChem BioAssays

>  <Max Phase>  (123) 
0

>  <#Ro5 Violations>  (123) 
0

>  <Molecular Weight>  (123) 
370.21

>  <Ligand Efficiency BEI>  (123) 
nan

>  <Ligand Efficiency LE>  (123) 
nan

>  <Ligand Efficiency LLE>  (123) 
nan

>  <Ligand Efficiency SEI>  (123) 
nan

>  <ALogP>  (123) 
4.1

>  <Assay Organism>  (123) 
nan

>  <Assay Tissue ChEMBL ID>  (123) 
nan

>  <Assay Tissue Name>  (123) 
nan

>  <Assay Cell Type>  (123) 
nan

>  <Assay Subcellular Fraction>  (123) 
nan

>  <Organism Tax ID>  (123) 
9606

>  <BAO Format ID>  (123) 
BAO_0000019

>  <Published Type>  (123) 
nan

>  <Published Relation>  (123) 
nan

>  <Published Value>  (123) 
nan

>  <Published Units>  (123) 
nan

>  <Canonical Smiles>  (123) 
COc1cc(C=C(C#N)c2nc3ccccc3[nH]2)c(Br)cc1O

>  <Data Validity Comment>  (123) 
nan

>  <Document Journal>  (123) 
nan

>  <Document Year>  (123) 
nan

>  <SRC ID>  (123) 
7

>  <UO Units>  (123) 
UO_0000065

>  <Potential Duplicate>  (123) 
False

>  <Class>  (123) 
1

$$$$

     RDKit          2D

 20 22  0  0  0  0  0  0  0  0999 V2000
    5.0490   -0.5490    0.0000 C   0  0  0  0  0  0  0  0  0  0  0  0
    3.7500   -1.2990    0.0000 C   0  0  0  0  0  0  0  0  0  0  0  0
    2.4510   -2.0490    0.0000 C   0  0  0  0  0  0  0  0  0  0  0  0
    4.5000   -2.5981    0.0000 C   0  0  0  0  0  0  0  0  0  0  0  0
    3.0000    0.0000    0.0000 N   0  0  0  0  0  0  0  0  0  0  0  0
    1.5000    0.0000    0.0000 C   0  0  0  0  0  0  0  0  0  0  0  0
    0.7500   -1.2990    0.0000 N   0  0  0  0  0  0  0  0  0  0  0  0
   -0.7500   -1.2990    0.0000 C   0  0  0  0  0  0  0  0  0  0  0  0
   -1.5000    0.0000    0.0000 N   0  0  0  0  0  0  0  0  0  0  0  0
   -0.7500    1.2990    0.0000 C   0  0  0  0  0  0  0  0  0  0  0  0
   -1.2135    2.7256    0.0000 N   0  0  0  0  0  0  0  0  0  0  0  0
   -0.0000    3.6073    0.0000 C   0  0  0  0  0  0  0  0  0  0  0  0
    1.2135    2.7256    0.0000 C   0  0  0  0  0  0  0  0  0  0  0  0
    2.6401    3.1891    0.0000 C   0  0  0  0  0  0  0  0  0  0  0  0
    3.7548    2.1855    0.0000 C   0  0  0  0  0  0  0  0  0  0  0  0
    5.1814    2.6490    0.0000 C   0  0  0  0  0  0  0  0  0  0  0  0
    5.4933    4.1162    0.0000 C   0  0  0  0  0  0  0  0  0  0  0  0
    4.3786    5.1199    0.0000 C   0  0  0  0  0  0  0  0  0  0  0  0
    2.9520    4.6564    0.0000 C   0  0  0  0  0  0  0  0  0  0  0  0
    0.7500    1.2990    0.0000 C   0  0  0  0  0  0  0  0  0  0  0  0
  1  2  1  0
  2  3  1  0
  2  4  1  0
  2  5  1  0
  5  6  1  0
  6  7  2  0
  7  8  1  0
  8  9  2  0
  9 10  1  0
 10 11  1  0
 11 12  1  0
 12 13  2  0
 13 14  1  0
 14 15  2  0
 15 16  1  0
 16 17  2  0
 17 18  1  0
 18 19  2  0
 13 20  1  0
 20  6  1  0
 20 10  2  0
 19 14  1  0
M  END
>  <Molecule>  (124) 
CHEMBL1995211

>  <Standard Type>  (124) 
Ki

>  <Standard Relation>  (124) 
>

>  <Standard Value>  (124) 
5011.87

>  <Standard Units>  (124) 
nM

>  <pChEMBL Value>  (124) 
nan

>  <Comment>  (124) 
inactive

>  <Compound Key>  (124) 
SID103904207

>  <Assay>  (124) 
CHEMBL1963742

>  <Assay Description>  (124) 
PUBCHEM_BIOASSAY: Navigating the Kinome. (Class of assay: other) Panel member name: JAK3

>  <BAO Format>  (124) 
assay format

>  <Target>  (124) 
CHEMBL2148

>  <Target Pref. Name>  (124) 
Tyrosine-protein kinase JAK3

>  <Target Organism>  (124) 
Homo sapiens

>  <Target Type>  (124) 
SINGLE PROTEIN

>  <Document>  (124) 
CHEMBL1201862

>  <Source>  (124) 
PubChem BioAssays

>  <Max Phase>  (124) 
0

>  <#Ro5 Violations>  (124) 
0

>  <Molecular Weight>  (124) 
266.35

>  <Ligand Efficiency BEI>  (124) 
nan

>  <Ligand Efficiency LE>  (124) 
nan

>  <Ligand Efficiency LLE>  (124) 
nan

>  <Ligand Efficiency SEI>  (124) 
nan

>  <ALogP>  (124) 
3.84

>  <Assay Organism>  (124) 
nan

>  <Assay Tissue ChEMBL ID>  (124) 
nan

>  <Assay Tissue Name>  (124) 
nan

>  <Assay Cell Type>  (124) 
nan

>  <Assay Subcellular Fraction>  (124) 
nan

>  <Organism Tax ID>  (124) 
9606

>  <BAO Format ID>  (124) 
BAO_0000019

>  <Published Type>  (124) 
nan

>  <Published Relation>  (124) 
nan

>  <Published Value>  (124) 
nan

>  <Published Units>  (124) 
nan

>  <Canonical Smiles>  (124) 
CC(C)(C)Nc1ncnc2[nH]cc(c3ccccc3)c12

>  <Data Validity Comment>  (124) 
nan

>  <Document Journal>  (124) 
nan

>  <Document Year>  (124) 
nan

>  <SRC ID>  (124) 
7

>  <UO Units>  (124) 
UO_0000065

>  <Potential Duplicate>  (124) 
False

>  <Class>  (124) 
0

$$$$

     RDKit          2D

 26 29  0  0  0  0  0  0  0  0999 V2000
  -15.4772    1.5201    0.0000 C   0  0  0  0  0  0  0  0  0  0  0  0
  -14.0507    1.9836    0.0000 C   0  0  0  0  0  0  0  0  0  0  0  0
  -13.7388    3.4509    0.0000 C   0  0  0  0  0  0  0  0  0  0  0  0
  -12.3122    3.9144    0.0000 C   0  0  0  0  0  0  0  0  0  0  0  0
  -11.1975    2.9107    0.0000 C   0  0  0  0  0  0  0  0  0  0  0  0
  -11.5094    1.4435    0.0000 C   0  0  0  0  0  0  0  0  0  0  0  0
  -10.3946    0.4398    0.0000 N   0  0  0  0  0  0  0  0  0  0  0  0
   -8.9681    0.9033    0.0000 C   0  0  0  0  0  0  0  0  0  0  0  0
   -8.6562    2.3705    0.0000 O   0  0  0  0  0  0  0  0  0  0  0  0
   -7.8533   -0.1004    0.0000 N   0  0  0  0  0  0  0  0  0  0  0  0
   -6.4268    0.3631    0.0000 C   0  0  0  0  0  0  0  0  0  0  0  0
   -5.3120   -0.6406    0.0000 C   0  0  0  0  0  0  0  0  0  0  0  0
   -3.8855   -0.1771    0.0000 C   0  0  0  0  0  0  0  0  0  0  0  0
   -3.5736    1.2902    0.0000 C   0  0  0  0  0  0  0  0  0  0  0  0
   -4.6883    2.2939    0.0000 C   0  0  0  0  0  0  0  0  0  0  0  0
   -6.1149    1.8303    0.0000 C   0  0  0  0  0  0  0  0  0  0  0  0
   -2.1470    1.7537    0.0000 C   0  0  0  0  0  0  0  0  0  0  0  0
   -1.8351    3.2209    0.0000 C   0  0  0  0  0  0  0  0  0  0  0  0
   -0.4086    3.6844    0.0000 C   0  0  0  0  0  0  0  0  0  0  0  0
    0.7062    2.6807    0.0000 C   0  0  0  0  0  0  0  0  0  0  0  0
    0.3943    1.2135    0.0000 C   0  0  0  0  0  0  0  0  0  0  0  0
    1.2760    0.0000    0.0000 N   0  0  0  0  0  0  0  0  0  0  0  0
    0.3943   -1.2135    0.0000 N   0  0  0  0  0  0  0  0  0  0  0  0
   -1.0323   -0.7500    0.0000 C   0  0  0  0  0  0  0  0  0  0  0  0
   -1.0323    0.7500    0.0000 C   0  0  0  0  0  0  0  0  0  0  0  0
  -12.9359    0.9799    0.0000 C   0  0  0  0  0  0  0  0  0  0  0  0
  1  2  1  0
  2  3  2  0
  3  4  1  0
  4  5  2  0
  5  6  1  0
  6  7  1  0
  7  8  1  0
  8  9  2  0
  8 10  1  0
 10 11  1  0
 11 12  2  0
 12 13  1  0
 13 14  2  0
 14 15  1  0
 15 16  2  0
 14 17  1  0
 17 18  2  0
 18 19  1  0
 19 20  2  0
 20 21  1  0
 21 22  1  0
 22 23  1  0
 23 24  2  0
 24 25  1  0
  6 26  2  0
 26  2  1  0
 16 11  1  0
 25 17  1  0
 25 21  2  0
M  END
>  <Molecule>  (125) 
CHEMBL375284

>  <Standard Type>  (125) 
Ki

>  <Standard Relation>  (125) 
>

>  <Standard Value>  (125) 
1584.89

>  <Standard Units>  (125) 
nM

>  <pChEMBL Value>  (125) 
nan

>  <Comment>  (125) 
inactive

>  <Compound Key>  (125) 
SID103904328

>  <Assay>  (125) 
CHEMBL1963742

>  <Assay Description>  (125) 
PUBCHEM_BIOASSAY: Navigating the Kinome. (Class of assay: other) Panel member name: JAK3

>  <BAO Format>  (125) 
assay format

>  <Target>  (125) 
CHEMBL2148

>  <Target Pref. Name>  (125) 
Tyrosine-protein kinase JAK3

>  <Target Organism>  (125) 
Homo sapiens

>  <Target Type>  (125) 
SINGLE PROTEIN

>  <Document>  (125) 
CHEMBL1201862

>  <Source>  (125) 
PubChem BioAssays

>  <Max Phase>  (125) 
0

>  <#Ro5 Violations>  (125) 
1

>  <Molecular Weight>  (125) 
342.4

>  <Ligand Efficiency BEI>  (125) 
nan

>  <Ligand Efficiency LE>  (125) 
nan

>  <Ligand Efficiency LLE>  (125) 
nan

>  <Ligand Efficiency SEI>  (125) 
nan

>  <ALogP>  (125) 
5.18

>  <Assay Organism>  (125) 
nan

>  <Assay Tissue ChEMBL ID>  (125) 
nan

>  <Assay Tissue Name>  (125) 
nan

>  <Assay Cell Type>  (125) 
nan

>  <Assay Subcellular Fraction>  (125) 
nan

>  <Organism Tax ID>  (125) 
9606

>  <BAO Format ID>  (125) 
BAO_0000019

>  <Published Type>  (125) 
nan

>  <Published Relation>  (125) 
nan

>  <Published Value>  (125) 
nan

>  <Published Units>  (125) 
nan

>  <Canonical Smiles>  (125) 
Cc1cccc(NC(=O)Nc2ccc(cc2)c3cccc4[nH]ncc34)c1

>  <Data Validity Comment>  (125) 
nan

>  <Document Journal>  (125) 
nan

>  <Document Year>  (125) 
nan

>  <SRC ID>  (125) 
7

>  <UO Units>  (125) 
UO_0000065

>  <Potential Duplicate>  (125) 
False

>  <Class>  (125) 
0

$$$$

     RDKit          2D

 18 19  0  0  0  0  0  0  0  0999 V2000
    3.0000    0.0000    0.0000 O   0  0  0  0  0  0  0  0  0  0  0  0
    1.5000    0.0000    0.0000 C   0  0  0  0  0  0  0  0  0  0  0  0
    0.7500   -1.2990    0.0000 C   0  0  0  0  0  0  0  0  0  0  0  0
   -0.7500   -1.2990    0.0000 C   0  0  0  0  0  0  0  0  0  0  0  0
   -1.5000   -2.5981    0.0000 O   0  0  0  0  0  0  0  0  0  0  0  0
   -1.5000    0.0000    0.0000 C   0  0  0  0  0  0  0  0  0  0  0  0
   -0.7500    1.2990    0.0000 C   0  0  0  0  0  0  0  0  0  0  0  0
   -1.5000    2.5981    0.0000 C   0  0  0  0  0  0  0  0  0  0  0  0
   -0.7500    3.8971    0.0000 C   0  0  0  0  0  0  0  0  0  0  0  0
   -1.5000    5.1962    0.0000 C   0  0  0  0  0  0  0  0  0  0  0  0
   -0.7500    6.4952    0.0000 C   0  0  0  0  0  0  0  0  0  0  0  0
   -1.5000    7.7942    0.0000 C   0  0  0  0  0  0  0  0  0  0  0  0
   -3.0000    7.7942    0.0000 C   0  0  0  0  0  0  0  0  0  0  0  0
   -3.7500    9.0933    0.0000 O   0  0  0  0  0  0  0  0  0  0  0  0
   -3.7500    6.4952    0.0000 C   0  0  0  0  0  0  0  0  0  0  0  0
   -5.2500    6.4952    0.0000 O   0  0  0  0  0  0  0  0  0  0  0  0
   -3.0000    5.1962    0.0000 C   0  0  0  0  0  0  0  0  0  0  0  0
    0.7500    1.2990    0.0000 C   0  0  0  0  0  0  0  0  0  0  0  0
  1  2  1  0
  2  3  2  0
  3  4  1  0
  4  5  1  0
  4  6  2  0
  6  7  1  0
  7  8  1  0
  8  9  2  3
  9 10  1  0
 10 11  2  0
 11 12  1  0
 12 13  2  0
 13 14  1  0
 13 15  1  0
 15 16  1  0
 15 17  2  0
  7 18  2  0
 18  2  1  0
 17 10  1  0
M  END
>  <Molecule>  (126) 
CHEMBL1972346

>  <Standard Type>  (126) 
Ki

>  <Standard Relation>  (126) 
=

>  <Standard Value>  (126) 
1000.0

>  <Standard Units>  (126) 
nM

>  <pChEMBL Value>  (126) 
6.0

>  <Comment>  (126) 
active

>  <Compound Key>  (126) 
SID103905107

>  <Assay>  (126) 
CHEMBL1963742

>  <Assay Description>  (126) 
PUBCHEM_BIOASSAY: Navigating the Kinome. (Class of assay: other) Panel member name: JAK3

>  <BAO Format>  (126) 
assay format

>  <Target>  (126) 
CHEMBL2148

>  <Target Pref. Name>  (126) 
Tyrosine-protein kinase JAK3

>  <Target Organism>  (126) 
Homo sapiens

>  <Target Type>  (126) 
SINGLE PROTEIN

>  <Document>  (126) 
CHEMBL1201862

>  <Source>  (126) 
PubChem BioAssays

>  <Max Phase>  (126) 
0

>  <#Ro5 Violations>  (126) 
0

>  <Molecular Weight>  (126) 
244.25

>  <Ligand Efficiency BEI>  (126) 
nan

>  <Ligand Efficiency LE>  (126) 
nan

>  <Ligand Efficiency LLE>  (126) 
nan

>  <Ligand Efficiency SEI>  (126) 
nan

>  <ALogP>  (126) 
2.68

>  <Assay Organism>  (126) 
nan

>  <Assay Tissue ChEMBL ID>  (126) 
nan

>  <Assay Tissue Name>  (126) 
nan

>  <Assay Cell Type>  (126) 
nan

>  <Assay Subcellular Fraction>  (126) 
nan

>  <Organism Tax ID>  (126) 
9606

>  <BAO Format ID>  (126) 
BAO_0000019

>  <Published Type>  (126) 
nan

>  <Published Relation>  (126) 
nan

>  <Published Value>  (126) 
nan

>  <Published Units>  (126) 
nan

>  <Canonical Smiles>  (126) 
Oc1cc(O)cc(C=Cc2ccc(O)c(O)c2)c1

>  <Data Validity Comment>  (126) 
nan

>  <Document Journal>  (126) 
nan

>  <Document Year>  (126) 
nan

>  <SRC ID>  (126) 
7

>  <UO Units>  (126) 
UO_0000065

>  <Potential Duplicate>  (126) 
False

>  <Class>  (126) 
1

$$$$

     RDKit          2D

 28 31  0  0  0  0  0  0  0  0999 V2000
   -2.1955    5.1507    0.0000 C   0  0  0  0  0  0  0  0  0  0  0  0
   -3.6221    4.6871    0.0000 S   0  0  0  0  0  0  0  0  0  0  0  0
   -3.1585    3.2605    0.0000 O   0  0  0  0  0  0  0  0  0  0  0  0
   -4.0856    6.1137    0.0000 O   0  0  0  0  0  0  0  0  0  0  0  0
   -5.0487    4.2236    0.0000 N   0  0  0  0  0  0  0  0  0  0  0  0
   -5.3605    2.7564    0.0000 C   0  0  0  0  0  0  0  0  0  0  0  0
   -4.2458    1.7527    0.0000 C   0  0  0  0  0  0  0  0  0  0  0  0
   -4.5577    0.2855    0.0000 C   0  0  0  0  0  0  0  0  0  0  0  0
   -5.9843   -0.1781    0.0000 C   0  0  0  0  0  0  0  0  0  0  0  0
   -7.0990    0.8256    0.0000 C   0  0  0  0  0  0  0  0  0  0  0  0
   -6.7871    2.2929    0.0000 C   0  0  0  0  0  0  0  0  0  0  0  0
   -6.2961   -1.6453    0.0000 N   0  0  0  0  0  0  0  0  0  0  0  0
   -5.1814   -2.6490    0.0000 C   0  0  0  0  0  0  0  0  0  0  0  0
   -5.4933   -4.1162    0.0000 N   0  0  0  0  0  0  0  0  0  0  0  0
   -4.3786   -5.1199    0.0000 C   0  0  0  0  0  0  0  0  0  0  0  0
   -4.6904   -6.5871    0.0000 Cl  0  0  0  0  0  0  0  0  0  0  0  0
   -2.9520   -4.6564    0.0000 C   0  0  0  0  0  0  0  0  0  0  0  0
   -2.6401   -3.1891    0.0000 C   0  0  0  0  0  0  0  0  0  0  0  0
   -3.7548   -2.1855    0.0000 N   0  0  0  0  0  0  0  0  0  0  0  0
   -1.2135   -2.7256    0.0000 C   0  0  0  0  0  0  0  0  0  0  0  0
    0.0000   -3.6073    0.0000 C   0  0  0  0  0  0  0  0  0  0  0  0
    1.2135   -2.7256    0.0000 N   0  0  0  0  0  0  0  0  0  0  0  0
    0.7500   -1.2990    0.0000 C   0  0  0  0  0  0  0  0  0  0  0  0
    1.5000    0.0000    0.0000 N   0  0  0  0  0  0  0  0  0  0  0  0
    0.7500    1.2990    0.0000 C   0  0  0  0  0  0  0  0  0  0  0  0
   -0.7500    1.2990    0.0000 C   0  0  0  0  0  0  0  0  0  0  0  0
   -1.5000    0.0000    0.0000 C   0  0  0  0  0  0  0  0  0  0  0  0
   -0.7500   -1.2990    0.0000 C   0  0  0  0  0  0  0  0  0  0  0  0
  1  2  1  0
  2  3  2  0
  2  4  2  0
  2  5  1  0
  5  6  1  0
  6  7  1  0
  7  8  1  0
  8  9  1  0
  9 10  1  0
 10 11  1  0
  9 12  1  0
 12 13  1  0
 13 14  2  0
 14 15  1  0
 15 16  1  0
 15 17  2  0
 17 18  1  0
 18 19  2  0
 18 20  1  0
 20 21  2  0
 21 22  1  0
 22 23  1  0
 23 24  2  0
 24 25  1  0
 25 26  2  0
 26 27  1  0
 27 28  2  0
 11  6  1  0
 19 13  1  0
 28 20  1  0
 28 23  1  0
M  END
>  <Molecule>  (127) 
CHEMBL1980562

>  <Standard Type>  (127) 
Ki

>  <Standard Relation>  (127) 
=

>  <Standard Value>  (127) 
794.33

>  <Standard Units>  (127) 
nM

>  <pChEMBL Value>  (127) 
6.1

>  <Comment>  (127) 
active

>  <Compound Key>  (127) 
SID103904225

>  <Assay>  (127) 
CHEMBL1963742

>  <Assay Description>  (127) 
PUBCHEM_BIOASSAY: Navigating the Kinome. (Class of assay: other) Panel member name: JAK3

>  <BAO Format>  (127) 
assay format

>  <Target>  (127) 
CHEMBL2148

>  <Target Pref. Name>  (127) 
Tyrosine-protein kinase JAK3

>  <Target Organism>  (127) 
Homo sapiens

>  <Target Type>  (127) 
SINGLE PROTEIN

>  <Document>  (127) 
CHEMBL1201862

>  <Source>  (127) 
PubChem BioAssays

>  <Max Phase>  (127) 
0

>  <#Ro5 Violations>  (127) 
0

>  <Molecular Weight>  (127) 
420.93

>  <Ligand Efficiency BEI>  (127) 
nan

>  <Ligand Efficiency LE>  (127) 
nan

>  <Ligand Efficiency LLE>  (127) 
nan

>  <Ligand Efficiency SEI>  (127) 
nan

>  <ALogP>  (127) 
2.95

>  <Assay Organism>  (127) 
nan

>  <Assay Tissue ChEMBL ID>  (127) 
nan

>  <Assay Tissue Name>  (127) 
nan

>  <Assay Cell Type>  (127) 
nan

>  <Assay Subcellular Fraction>  (127) 
nan

>  <Organism Tax ID>  (127) 
9606

>  <BAO Format ID>  (127) 
BAO_0000019

>  <Published Type>  (127) 
nan

>  <Published Relation>  (127) 
nan

>  <Published Value>  (127) 
nan

>  <Published Units>  (127) 
nan

>  <Canonical Smiles>  (127) 
CS(=O)(=O)NC1CCC(CC1)Nc2nc(Cl)cc(n2)c3c[nH]c4ncccc34

>  <Data Validity Comment>  (127) 
nan

>  <Document Journal>  (127) 
nan

>  <Document Year>  (127) 
nan

>  <SRC ID>  (127) 
7

>  <UO Units>  (127) 
UO_0000065

>  <Potential Duplicate>  (127) 
False

>  <Class>  (127) 
1

$$$$

     RDKit          2D

 17 19  0  0  0  0  0  0  0  0999 V2000
    0.0000   -9.6073    0.0000 C   0  0  0  0  0  0  0  0  0  0  0  0
    0.0000   -8.1073    0.0000 C   0  0  0  0  0  0  0  0  0  0  0  0
   -1.2990   -7.3573    0.0000 C   0  0  0  0  0  0  0  0  0  0  0  0
   -1.2990   -5.8573    0.0000 C   0  0  0  0  0  0  0  0  0  0  0  0
   -0.0000   -5.1073    0.0000 C   0  0  0  0  0  0  0  0  0  0  0  0
    1.2990   -5.8573    0.0000 C   0  0  0  0  0  0  0  0  0  0  0  0
    1.2990   -7.3573    0.0000 C   0  0  0  0  0  0  0  0  0  0  0  0
   -0.0000   -3.6073    0.0000 C   0  0  0  0  0  0  0  0  0  0  0  0
    1.2135   -2.7256    0.0000 C   0  0  0  0  0  0  0  0  0  0  0  0
    0.7500   -1.2990    0.0000 C   0  0  0  0  0  0  0  0  0  0  0  0
    1.5000    0.0000    0.0000 N   0  0  0  0  0  0  0  0  0  0  0  0
    0.7500    1.2990    0.0000 C   0  0  0  0  0  0  0  0  0  0  0  0
    1.5000    2.5981    0.0000 Br  0  0  0  0  0  0  0  0  0  0  0  0
   -0.7500    1.2990    0.0000 C   0  0  0  0  0  0  0  0  0  0  0  0
   -1.5000    0.0000    0.0000 N   0  0  0  0  0  0  0  0  0  0  0  0
   -0.7500   -1.2990    0.0000 C   0  0  0  0  0  0  0  0  0  0  0  0
   -1.2135   -2.7256    0.0000 N   0  0  0  0  0  0  0  0  0  0  0  0
  1  2  1  0
  2  3  2  0
  3  4  1  0
  4  5  2  0
  5  6  1  0
  6  7  2  0
  5  8  1  0
  8  9  2  0
  9 10  1  0
 10 11  2  0
 11 12  1  0
 12 13  1  0
 12 14  2  0
 14 15  1  0
 15 16  2  0
 16 17  1  0
  7  2  1  0
 17  8  1  0
 16 10  1  0
M  END
>  <Molecule>  (128) 
CHEMBL1965169

>  <Standard Type>  (128) 
Ki

>  <Standard Relation>  (128) 
>

>  <Standard Value>  (128) 
5011.87

>  <Standard Units>  (128) 
nM

>  <pChEMBL Value>  (128) 
nan

>  <Comment>  (128) 
inactive

>  <Compound Key>  (128) 
SID103905324

>  <Assay>  (128) 
CHEMBL1963742

>  <Assay Description>  (128) 
PUBCHEM_BIOASSAY: Navigating the Kinome. (Class of assay: other) Panel member name: JAK3

>  <BAO Format>  (128) 
assay format

>  <Target>  (128) 
CHEMBL2148

>  <Target Pref. Name>  (128) 
Tyrosine-protein kinase JAK3

>  <Target Organism>  (128) 
Homo sapiens

>  <Target Type>  (128) 
SINGLE PROTEIN

>  <Document>  (128) 
CHEMBL1201862

>  <Source>  (128) 
PubChem BioAssays

>  <Max Phase>  (128) 
0

>  <#Ro5 Violations>  (128) 
0

>  <Molecular Weight>  (128) 
288.15

>  <Ligand Efficiency BEI>  (128) 
nan

>  <Ligand Efficiency LE>  (128) 
nan

>  <Ligand Efficiency LLE>  (128) 
nan

>  <Ligand Efficiency SEI>  (128) 
nan

>  <ALogP>  (128) 
3.7

>  <Assay Organism>  (128) 
nan

>  <Assay Tissue ChEMBL ID>  (128) 
nan

>  <Assay Tissue Name>  (128) 
nan

>  <Assay Cell Type>  (128) 
nan

>  <Assay Subcellular Fraction>  (128) 
nan

>  <Organism Tax ID>  (128) 
9606

>  <BAO Format ID>  (128) 
BAO_0000019

>  <Published Type>  (128) 
nan

>  <Published Relation>  (128) 
nan

>  <Published Value>  (128) 
nan

>  <Published Units>  (128) 
nan

>  <Canonical Smiles>  (128) 
Cc1ccc(cc1)c2cc3nc(Br)cnc3[nH]2

>  <Data Validity Comment>  (128) 
nan

>  <Document Journal>  (128) 
nan

>  <Document Year>  (128) 
nan

>  <SRC ID>  (128) 
7

>  <UO Units>  (128) 
UO_0000065

>  <Potential Duplicate>  (128) 
False

>  <Class>  (128) 
0

$$$$

     RDKit          2D

 30 32  0  0  0  0  0  0  0  0999 V2000
    3.0000    0.0000    0.0000 C   0  0  0  0  0  0  0  0  0  0  0  0
    1.5000    0.0000    0.0000 C   0  0  0  0  0  0  0  0  0  0  0  0
    0.7500   -1.2990    0.0000 C   0  0  0  0  0  0  0  0  0  0  0  0
   -0.7500   -1.2990    0.0000 C   0  0  0  0  0  0  0  0  0  0  0  0
   -1.5000   -2.5981    0.0000 O   0  0  0  0  0  0  0  0  0  0  0  0
   -1.5000    0.0000    0.0000 N   0  0  0  0  0  0  0  0  0  0  0  0
   -0.7500    1.2990    0.0000 N   0  0  0  0  0  0  0  0  0  0  0  0
    0.7500    1.2990    0.0000 C   0  0  0  0  0  0  0  0  0  0  0  0
    1.5000    2.5981    0.0000 C   0  0  0  0  0  0  0  0  0  0  0  0
    3.0000    2.5981    0.0000 C   0  0  0  0  0  0  0  0  0  0  0  0
    3.7500    3.8971    0.0000 C   0  0  0  0  0  0  0  0  0  0  0  0
    3.0000    5.1962    0.0000 C   0  0  0  0  0  0  0  0  0  0  0  0
    3.7500    6.4952    0.0000 N   0  0  0  0  0  0  0  0  0  0  0  0
    5.2500    6.4952    0.0000 C   0  0  0  0  0  0  0  0  0  0  0  0
    6.0000    5.1962    0.0000 O   0  0  0  0  0  0  0  0  0  0  0  0
    6.0000    7.7942    0.0000 N   0  0  0  0  0  0  0  0  0  0  0  0
    7.5000    7.7942    0.0000 C   0  0  0  0  0  0  0  0  0  0  0  0
    8.2500    6.4952    0.0000 C   0  0  0  0  0  0  0  0  0  0  0  0
    9.7500    6.4952    0.0000 C   0  0  0  0  0  0  0  0  0  0  0  0
   10.5000    7.7942    0.0000 C   0  0  0  0  0  0  0  0  0  0  0  0
    9.7500    9.0933    0.0000 C   0  0  0  0  0  0  0  0  0  0  0  0
    8.2500    9.0933    0.0000 C   0  0  0  0  0  0  0  0  0  0  0  0
    7.5000   10.3923    0.0000 F   0  0  0  0  0  0  0  0  0  0  0  0
   10.5000    5.1962    0.0000 C   0  0  0  0  0  0  0  0  0  0  0  0
   11.2500    3.8971    0.0000 F   0  0  0  0  0  0  0  0  0  0  0  0
    9.2010    4.4462    0.0000 F   0  0  0  0  0  0  0  0  0  0  0  0
   11.7990    5.9462    0.0000 F   0  0  0  0  0  0  0  0  0  0  0  0
    1.5000    5.1962    0.0000 C   0  0  0  0  0  0  0  0  0  0  0  0
    0.7500    6.4952    0.0000 Cl  0  0  0  0  0  0  0  0  0  0  0  0
    0.7500    3.8971    0.0000 C   0  0  0  0  0  0  0  0  0  0  0  0
  1  2  1  0
  2  3  2  0
  3  4  1  0
  4  5  2  0
  4  6  1  0
  6  7  1  0
  7  8  2  0
  8  9  1  0
  9 10  2  0
 10 11  1  0
 11 12  2  0
 12 13  1  0
 13 14  1  0
 14 15  2  0
 14 16  1  0
 16 17  1  0
 17 18  2  0
 18 19  1  0
 19 20  2  0
 20 21  1  0
 21 22  2  0
 22 23  1  0
 19 24  1  0
 24 25  1  0
 24 26  1  0
 24 27  1  0
 12 28  1  0
 28 29  1  0
 28 30  2  0
  8  2  1  0
 30  9  1  0
 22 17  1  0
M  END
>  <Molecule>  (129) 
CHEMBL1997892

>  <Standard Type>  (129) 
Ki

>  <Standard Relation>  (129) 
>

>  <Standard Value>  (129) 
5011.87

>  <Standard Units>  (129) 
nM

>  <pChEMBL Value>  (129) 
nan

>  <Comment>  (129) 
inactive

>  <Compound Key>  (129) 
SID103905331

>  <Assay>  (129) 
CHEMBL1963742

>  <Assay Description>  (129) 
PUBCHEM_BIOASSAY: Navigating the Kinome. (Class of assay: other) Panel member name: JAK3

>  <BAO Format>  (129) 
assay format

>  <Target>  (129) 
CHEMBL2148

>  <Target Pref. Name>  (129) 
Tyrosine-protein kinase JAK3

>  <Target Organism>  (129) 
Homo sapiens

>  <Target Type>  (129) 
SINGLE PROTEIN

>  <Document>  (129) 
CHEMBL1201862

>  <Source>  (129) 
PubChem BioAssays

>  <Max Phase>  (129) 
0

>  <#Ro5 Violations>  (129) 
1

>  <Molecular Weight>  (129) 
440.78

>  <Ligand Efficiency BEI>  (129) 
nan

>  <Ligand Efficiency LE>  (129) 
nan

>  <Ligand Efficiency LLE>  (129) 
nan

>  <Ligand Efficiency SEI>  (129) 
nan

>  <ALogP>  (129) 
5.2

>  <Assay Organism>  (129) 
nan

>  <Assay Tissue ChEMBL ID>  (129) 
nan

>  <Assay Tissue Name>  (129) 
nan

>  <Assay Cell Type>  (129) 
nan

>  <Assay Subcellular Fraction>  (129) 
nan

>  <Organism Tax ID>  (129) 
9606

>  <BAO Format ID>  (129) 
BAO_0000019

>  <Published Type>  (129) 
nan

>  <Published Relation>  (129) 
nan

>  <Published Value>  (129) 
nan

>  <Published Units>  (129) 
nan

>  <Canonical Smiles>  (129) 
CC1=CC(=O)NN=C1c2ccc(NC(=O)Nc3cc(ccc3F)C(F)(F)F)c(Cl)c2

>  <Data Validity Comment>  (129) 
nan

>  <Document Journal>  (129) 
nan

>  <Document Year>  (129) 
nan

>  <SRC ID>  (129) 
7

>  <UO Units>  (129) 
UO_0000065

>  <Potential Duplicate>  (129) 
False

>  <Class>  (129) 
0

$$$$

     RDKit          2D

 31 35  0  0  0  0  0  0  0  0999 V2000
   -4.3786   -5.1199    0.0000 C   0  0  0  0  0  0  0  0  0  0  0  0
   -4.0667   -3.6527    0.0000 C   0  0  0  0  0  0  0  0  0  0  0  0
   -5.1814   -2.6490    0.0000 C   0  0  0  0  0  0  0  0  0  0  0  0
   -2.6401   -3.1891    0.0000 S   0  0  0  0  0  0  0  0  0  0  0  0
   -2.1766   -4.6157    0.0000 O   0  0  0  0  0  0  0  0  0  0  0  0
   -3.1036   -1.7626    0.0000 O   0  0  0  0  0  0  0  0  0  0  0  0
   -1.2135   -2.7256    0.0000 N   0  0  0  0  0  0  0  0  0  0  0  0
   -0.0000   -3.6073    0.0000 C   0  0  0  0  0  0  0  0  0  0  0  0
   -0.0000   -5.1073    0.0000 N   0  0  0  0  0  0  0  0  0  0  0  0
    1.2135   -2.7256    0.0000 N   0  0  0  0  0  0  0  0  0  0  0  0
    0.7500   -1.2990    0.0000 C   0  0  0  0  0  0  0  0  0  0  0  0
    1.5000    0.0000    0.0000 C   0  0  0  0  0  0  0  0  0  0  0  0
    0.7500    1.2990    0.0000 C   0  0  0  0  0  0  0  0  0  0  0  0
   -0.7500    1.2990    0.0000 C   0  0  0  0  0  0  0  0  0  0  0  0
   -1.5000    0.0000    0.0000 C   0  0  0  0  0  0  0  0  0  0  0  0
   -0.7500   -1.2990    0.0000 C   0  0  0  0  0  0  0  0  0  0  0  0
   -1.5000    2.5981    0.0000 C   0  0  0  0  0  0  0  0  0  0  0  0
   -2.9918    2.7549    0.0000 C   0  0  0  0  0  0  0  0  0  0  0  0
   -3.3037    4.2221    0.0000 N   0  0  0  0  0  0  0  0  0  0  0  0
   -2.0046    4.9721    0.0000 C   0  0  0  0  0  0  0  0  0  0  0  0
   -1.3945    6.3424    0.0000 S   0  0  0  0  0  0  0  0  0  0  0  0
    0.0973    6.1856    0.0000 C   0  0  0  0  0  0  0  0  0  0  0  0
    0.4091    4.7184    0.0000 C   0  0  0  0  0  0  0  0  0  0  0  0
   -0.8899    3.9684    0.0000 N   0  0  0  0  0  0  0  0  0  0  0  0
   -3.9955    1.6402    0.0000 C   0  0  0  0  0  0  0  0  0  0  0  0
   -5.4627    1.9520    0.0000 C   0  0  0  0  0  0  0  0  0  0  0  0
   -6.4664    0.8373    0.0000 C   0  0  0  0  0  0  0  0  0  0  0  0
   -6.0029   -0.5893    0.0000 C   0  0  0  0  0  0  0  0  0  0  0  0
   -7.0066   -1.7040    0.0000 F   0  0  0  0  0  0  0  0  0  0  0  0
   -4.5356   -0.9012    0.0000 C   0  0  0  0  0  0  0  0  0  0  0  0
   -3.5320    0.2136    0.0000 C   0  0  0  0  0  0  0  0  0  0  0  0
  1  2  1  0
  2  3  1  0
  2  4  1  0
  4  5  2  0
  4  6  2  0
  4  7  1  0
  7  8  1  0
  8  9  1  0
  8 10  2  0
 10 11  1  0
 11 12  2  0
 12 13  1  0
 13 14  2  0
 14 15  1  0
 15 16  2  0
 14 17  1  0
 17 18  2  0
 18 19  1  0
 19 20  2  0
 20 21  1  0
 21 22  1  0
 22 23  2  0
 23 24  1  0
 18 25  1  0
 25 26  2  0
 26 27  1  0
 27 28  2  0
 28 29  1  0
 28 30  1  0
 30 31  2  0
 16  7  1  0
 16 11  1  0
 24 17  1  0
 24 20  1  0
 31 25  1  0
M  END
>  <Molecule>  (130) 
CHEMBL2003657

>  <Standard Type>  (130) 
Ki

>  <Standard Relation>  (130) 
>

>  <Standard Value>  (130) 
1584.89

>  <Standard Units>  (130) 
nM

>  <pChEMBL Value>  (130) 
nan

>  <Comment>  (130) 
inactive

>  <Compound Key>  (130) 
SID103905061

>  <Assay>  (130) 
CHEMBL1963742

>  <Assay Description>  (130) 
PUBCHEM_BIOASSAY: Navigating the Kinome. (Class of assay: other) Panel member name: JAK3

>  <BAO Format>  (130) 
assay format

>  <Target>  (130) 
CHEMBL2148

>  <Target Pref. Name>  (130) 
Tyrosine-protein kinase JAK3

>  <Target Organism>  (130) 
Homo sapiens

>  <Target Type>  (130) 
SINGLE PROTEIN

>  <Document>  (130) 
CHEMBL1201862

>  <Source>  (130) 
PubChem BioAssays

>  <Max Phase>  (130) 
0

>  <#Ro5 Violations>  (130) 
0

>  <Molecular Weight>  (130) 
455.54

>  <Ligand Efficiency BEI>  (130) 
nan

>  <Ligand Efficiency LE>  (130) 
nan

>  <Ligand Efficiency LLE>  (130) 
nan

>  <Ligand Efficiency SEI>  (130) 
nan

>  <ALogP>  (130) 
4.39

>  <Assay Organism>  (130) 
nan

>  <Assay Tissue ChEMBL ID>  (130) 
nan

>  <Assay Tissue Name>  (130) 
nan

>  <Assay Cell Type>  (130) 
nan

>  <Assay Subcellular Fraction>  (130) 
nan

>  <Organism Tax ID>  (130) 
9606

>  <BAO Format ID>  (130) 
BAO_0000019

>  <Published Type>  (130) 
nan

>  <Published Relation>  (130) 
nan

>  <Published Value>  (130) 
nan

>  <Published Units>  (130) 
nan

>  <Canonical Smiles>  (130) 
CC(C)S(=O)(=O)n1c(N)nc2ccc(cc12)c3c(nc4sccn34)c5ccc(F)cc5

>  <Data Validity Comment>  (130) 
nan

>  <Document Journal>  (130) 
nan

>  <Document Year>  (130) 
nan

>  <SRC ID>  (130) 
7

>  <UO Units>  (130) 
UO_0000065

>  <Potential Duplicate>  (130) 
False

>  <Class>  (130) 
0

$$$$

     RDKit          2D

 17 19  0  0  0  0  0  0  0  0999 V2000
   -2.6401   -3.1891    0.0000 Cl  0  0  0  0  0  0  0  0  0  0  0  0
   -1.2135   -2.7256    0.0000 C   0  0  0  0  0  0  0  0  0  0  0  0
   -0.0000   -3.6073    0.0000 C   0  0  0  0  0  0  0  0  0  0  0  0
    1.2135   -2.7256    0.0000 S   0  0  0  0  0  0  0  0  0  0  0  0
    0.7500   -1.2990    0.0000 C   0  0  0  0  0  0  0  0  0  0  0  0
    1.5000    0.0000    0.0000 N   0  0  0  0  0  0  0  0  0  0  0  0
    0.7500    1.2990    0.0000 C   0  0  0  0  0  0  0  0  0  0  0  0
   -0.7500    1.2990    0.0000 N   0  0  0  0  0  0  0  0  0  0  0  0
   -1.5000    0.0000    0.0000 C   0  0  0  0  0  0  0  0  0  0  0  0
   -3.0000    0.0000    0.0000 N   0  0  0  0  0  0  0  0  0  0  0  0
   -3.7500    1.2990    0.0000 C   0  0  0  0  0  0  0  0  0  0  0  0
   -3.0000    2.5981    0.0000 C   0  0  0  0  0  0  0  0  0  0  0  0
   -3.7500    3.8971    0.0000 C   0  0  0  0  0  0  0  0  0  0  0  0
   -5.2500    3.8971    0.0000 C   0  0  0  0  0  0  0  0  0  0  0  0
   -6.0000    2.5981    0.0000 C   0  0  0  0  0  0  0  0  0  0  0  0
   -5.2500    1.2990    0.0000 C   0  0  0  0  0  0  0  0  0  0  0  0
   -0.7500   -1.2990    0.0000 C   0  0  0  0  0  0  0  0  0  0  0  0
  1  2  1  0
  2  3  2  0
  3  4  1  0
  4  5  1  0
  5  6  2  0
  6  7  1  0
  7  8  2  0
  8  9  1  0
  9 10  1  0
 10 11  1  0
 11 12  2  0
 12 13  1  0
 13 14  2  0
 14 15  1  0
 15 16  2  0
  9 17  2  0
 17  2  1  0
 17  5  1  0
 16 11  1  0
M  END
>  <Molecule>  (131) 
CHEMBL1986139

>  <Standard Type>  (131) 
Ki

>  <Standard Relation>  (131) 
>

>  <Standard Value>  (131) 
1584.89

>  <Standard Units>  (131) 
nM

>  <pChEMBL Value>  (131) 
nan

>  <Comment>  (131) 
inactive

>  <Compound Key>  (131) 
SID103905168

>  <Assay>  (131) 
CHEMBL1963742

>  <Assay Description>  (131) 
PUBCHEM_BIOASSAY: Navigating the Kinome. (Class of assay: other) Panel member name: JAK3

>  <BAO Format>  (131) 
assay format

>  <Target>  (131) 
CHEMBL2148

>  <Target Pref. Name>  (131) 
Tyrosine-protein kinase JAK3

>  <Target Organism>  (131) 
Homo sapiens

>  <Target Type>  (131) 
SINGLE PROTEIN

>  <Document>  (131) 
CHEMBL1201862

>  <Source>  (131) 
PubChem BioAssays

>  <Max Phase>  (131) 
0

>  <#Ro5 Violations>  (131) 
0

>  <Molecular Weight>  (131) 
261.74

>  <Ligand Efficiency BEI>  (131) 
nan

>  <Ligand Efficiency LE>  (131) 
nan

>  <Ligand Efficiency LLE>  (131) 
nan

>  <Ligand Efficiency SEI>  (131) 
nan

>  <ALogP>  (131) 
4.09

>  <Assay Organism>  (131) 
nan

>  <Assay Tissue ChEMBL ID>  (131) 
nan

>  <Assay Tissue Name>  (131) 
nan

>  <Assay Cell Type>  (131) 
nan

>  <Assay Subcellular Fraction>  (131) 
nan

>  <Organism Tax ID>  (131) 
9606

>  <BAO Format ID>  (131) 
BAO_0000019

>  <Published Type>  (131) 
nan

>  <Published Relation>  (131) 
nan

>  <Published Value>  (131) 
nan

>  <Published Units>  (131) 
nan

>  <Canonical Smiles>  (131) 
Clc1csc2ncnc(Nc3ccccc3)c12

>  <Data Validity Comment>  (131) 
nan

>  <Document Journal>  (131) 
nan

>  <Document Year>  (131) 
nan

>  <SRC ID>  (131) 
7

>  <UO Units>  (131) 
UO_0000065

>  <Potential Duplicate>  (131) 
False

>  <Class>  (131) 
0

$$$$

     RDKit          2D

 17 19  0  0  0  0  0  0  0  0999 V2000
   -2.6401   -3.1891    0.0000 N   0  0  0  0  0  0  0  0  0  0  0  0
   -1.2135   -2.7256    0.0000 C   0  0  0  0  0  0  0  0  0  0  0  0
   -0.0000   -3.6073    0.0000 N   0  0  0  0  0  0  0  0  0  0  0  0
    1.2135   -2.7256    0.0000 N   0  0  0  0  0  0  0  0  0  0  0  0
    0.7500   -1.2990    0.0000 C   0  0  0  0  0  0  0  0  0  0  0  0
    1.5000    0.0000    0.0000 C   0  0  0  0  0  0  0  0  0  0  0  0
    0.7500    1.2990    0.0000 C   0  0  0  0  0  0  0  0  0  0  0  0
   -0.7500    1.2990    0.0000 C   0  0  0  0  0  0  0  0  0  0  0  0
   -1.5000    0.0000    0.0000 C   0  0  0  0  0  0  0  0  0  0  0  0
   -3.0000    0.0000    0.0000 C   0  0  0  0  0  0  0  0  0  0  0  0
   -3.7500    1.2990    0.0000 C   0  0  0  0  0  0  0  0  0  0  0  0
   -5.2500    1.2990    0.0000 C   0  0  0  0  0  0  0  0  0  0  0  0
   -6.0000    0.0000    0.0000 C   0  0  0  0  0  0  0  0  0  0  0  0
   -7.5000    0.0000    0.0000 Br  0  0  0  0  0  0  0  0  0  0  0  0
   -5.2500   -1.2990    0.0000 C   0  0  0  0  0  0  0  0  0  0  0  0
   -3.7500   -1.2990    0.0000 C   0  0  0  0  0  0  0  0  0  0  0  0
   -0.7500   -1.2990    0.0000 C   0  0  0  0  0  0  0  0  0  0  0  0
  1  2  1  0
  2  3  2  0
  3  4  1  0
  4  5  1  0
  5  6  2  0
  6  7  1  0
  7  8  2  0
  8  9  1  0
  9 10  1  0
 10 11  2  0
 11 12  1  0
 12 13  2  0
 13 14  1  0
 13 15  1  0
 15 16  2  0
  9 17  2  0
 17  2  1  0
 17  5  1  0
 16 10  1  0
M  END
>  <Molecule>  (132) 
CHEMBL1990346

>  <Standard Type>  (132) 
Ki

>  <Standard Relation>  (132) 
>

>  <Standard Value>  (132) 
1584.89

>  <Standard Units>  (132) 
nM

>  <pChEMBL Value>  (132) 
nan

>  <Comment>  (132) 
inactive

>  <Compound Key>  (132) 
SID103905032

>  <Assay>  (132) 
CHEMBL1963742

>  <Assay Description>  (132) 
PUBCHEM_BIOASSAY: Navigating the Kinome. (Class of assay: other) Panel member name: JAK3

>  <BAO Format>  (132) 
assay format

>  <Target>  (132) 
CHEMBL2148

>  <Target Pref. Name>  (132) 
Tyrosine-protein kinase JAK3

>  <Target Organism>  (132) 
Homo sapiens

>  <Target Type>  (132) 
SINGLE PROTEIN

>  <Document>  (132) 
CHEMBL1201862

>  <Source>  (132) 
PubChem BioAssays

>  <Max Phase>  (132) 
0

>  <#Ro5 Violations>  (132) 
0

>  <Molecular Weight>  (132) 
288.15

>  <Ligand Efficiency BEI>  (132) 
nan

>  <Ligand Efficiency LE>  (132) 
nan

>  <Ligand Efficiency LLE>  (132) 
nan

>  <Ligand Efficiency SEI>  (132) 
nan

>  <ALogP>  (132) 
3.57

>  <Assay Organism>  (132) 
nan

>  <Assay Tissue ChEMBL ID>  (132) 
nan

>  <Assay Tissue Name>  (132) 
nan

>  <Assay Cell Type>  (132) 
nan

>  <Assay Subcellular Fraction>  (132) 
nan

>  <Organism Tax ID>  (132) 
9606

>  <BAO Format ID>  (132) 
BAO_0000019

>  <Published Type>  (132) 
nan

>  <Published Relation>  (132) 
nan

>  <Published Value>  (132) 
nan

>  <Published Units>  (132) 
nan

>  <Canonical Smiles>  (132) 
Nc1n[nH]c2cccc(c3ccc(Br)cc3)c12

>  <Data Validity Comment>  (132) 
nan

>  <Document Journal>  (132) 
nan

>  <Document Year>  (132) 
nan

>  <SRC ID>  (132) 
7

>  <UO Units>  (132) 
UO_0000065

>  <Potential Duplicate>  (132) 
False

>  <Class>  (132) 
0

$$$$

     RDKit          2D

 32 35  0  0  0  0  0  0  0  0999 V2000
   -3.6304   -8.2500    0.0000 C   0  0  0  0  0  0  0  0  0  0  0  0
   -3.6304   -6.7500    0.0000 N   0  0  0  0  0  0  0  0  0  0  0  0
   -2.3313   -6.0000    0.0000 C   0  0  0  0  0  0  0  0  0  0  0  0
   -2.3313   -4.5000    0.0000 C   0  0  0  0  0  0  0  0  0  0  0  0
   -2.3313   -3.0000    0.0000 C   0  0  0  0  0  0  0  0  0  0  0  0
   -2.3313   -1.5000    0.0000 C   0  0  0  0  0  0  0  0  0  0  0  0
   -3.6304   -0.7500    0.0000 C   0  0  0  0  0  0  0  0  0  0  0  0
   -3.6304    0.7500    0.0000 N   0  0  0  0  0  0  0  0  0  0  0  0
   -2.3313    1.5000    0.0000 C   0  0  0  0  0  0  0  0  0  0  0  0
   -2.3313    3.0000    0.0000 N   0  0  0  0  0  0  0  0  0  0  0  0
   -1.0323    0.7500    0.0000 C   0  0  0  0  0  0  0  0  0  0  0  0
    0.3943    1.2135    0.0000 C   0  0  0  0  0  0  0  0  0  0  0  0
    1.2760    0.0000    0.0000 C   0  0  0  0  0  0  0  0  0  0  0  0
    0.3943   -1.2135    0.0000 S   0  0  0  0  0  0  0  0  0  0  0  0
   -1.0323   -0.7500    0.0000 C   0  0  0  0  0  0  0  0  0  0  0  0
    0.8578    2.6401    0.0000 C   0  0  0  0  0  0  0  0  0  0  0  0
    2.3250    2.9520    0.0000 C   0  0  0  0  0  0  0  0  0  0  0  0
    2.7886    4.3786    0.0000 C   0  0  0  0  0  0  0  0  0  0  0  0
    1.7849    5.4933    0.0000 C   0  0  0  0  0  0  0  0  0  0  0  0
    2.2484    6.9199    0.0000 N   0  0  0  0  0  0  0  0  0  0  0  0
    3.7156    7.2317    0.0000 C   0  0  0  0  0  0  0  0  0  0  0  0
    4.7193    6.1170    0.0000 O   0  0  0  0  0  0  0  0  0  0  0  0
    4.1791    8.6583    0.0000 N   0  0  0  0  0  0  0  0  0  0  0  0
    5.6464    8.9702    0.0000 C   0  0  0  0  0  0  0  0  0  0  0  0
    6.6501    7.8555    0.0000 C   0  0  0  0  0  0  0  0  0  0  0  0
    8.1173    8.1673    0.0000 C   0  0  0  0  0  0  0  0  0  0  0  0
    8.5808    9.5939    0.0000 C   0  0  0  0  0  0  0  0  0  0  0  0
    7.5771   10.7086    0.0000 C   0  0  0  0  0  0  0  0  0  0  0  0
    8.0406   12.1352    0.0000 C   0  0  0  0  0  0  0  0  0  0  0  0
    6.1099   10.3968    0.0000 C   0  0  0  0  0  0  0  0  0  0  0  0
    0.3177    5.1814    0.0000 C   0  0  0  0  0  0  0  0  0  0  0  0
   -0.1459    3.7548    0.0000 C   0  0  0  0  0  0  0  0  0  0  0  0
  1  2  1  0
  2  3  1  0
  3  4  1  0
  4  5  3  0
  5  6  1  0
  6  7  2  0
  7  8  1  0
  8  9  2  0
  9 10  1  0
  9 11  1  0
 11 12  1  0
 12 13  2  0
 13 14  1  0
 14 15  1  0
 12 16  1  0
 16 17  2  0
 17 18  1  0
 18 19  2  0
 19 20  1  0
 20 21  1  0
 21 22  2  0
 21 23  1  0
 23 24  1  0
 24 25  2  0
 25 26  1  0
 26 27  2  0
 27 28  1  0
 28 29  1  0
 28 30  2  0
 19 31  1  0
 31 32  2  0
 15  6  1  0
 15 11  2  0
 32 16  1  0
 30 24  1  0
M  END
>  <Molecule>  (133) 
CHEMBL1964441

>  <Standard Type>  (133) 
Ki

>  <Standard Relation>  (133) 
>

>  <Standard Value>  (133) 
5011.87

>  <Standard Units>  (133) 
nM

>  <pChEMBL Value>  (133) 
nan

>  <Comment>  (133) 
inactive

>  <Compound Key>  (133) 
SID103904269

>  <Assay>  (133) 
CHEMBL1963742

>  <Assay Description>  (133) 
PUBCHEM_BIOASSAY: Navigating the Kinome. (Class of assay: other) Panel member name: JAK3

>  <BAO Format>  (133) 
assay format

>  <Target>  (133) 
CHEMBL2148

>  <Target Pref. Name>  (133) 
Tyrosine-protein kinase JAK3

>  <Target Organism>  (133) 
Homo sapiens

>  <Target Type>  (133) 
SINGLE PROTEIN

>  <Document>  (133) 
CHEMBL1201862

>  <Source>  (133) 
PubChem BioAssays

>  <Max Phase>  (133) 
0

>  <#Ro5 Violations>  (133) 
1

>  <Molecular Weight>  (133) 
441.56

>  <Ligand Efficiency BEI>  (133) 
nan

>  <Ligand Efficiency LE>  (133) 
nan

>  <Ligand Efficiency LLE>  (133) 
nan

>  <Ligand Efficiency SEI>  (133) 
nan

>  <ALogP>  (133) 
5.07

>  <Assay Organism>  (133) 
nan

>  <Assay Tissue ChEMBL ID>  (133) 
nan

>  <Assay Tissue Name>  (133) 
nan

>  <Assay Cell Type>  (133) 
nan

>  <Assay Subcellular Fraction>  (133) 
nan

>  <Organism Tax ID>  (133) 
9606

>  <BAO Format ID>  (133) 
BAO_0000019

>  <Published Type>  (133) 
nan

>  <Published Relation>  (133) 
nan

>  <Published Value>  (133) 
nan

>  <Published Units>  (133) 
nan

>  <Canonical Smiles>  (133) 
CNCC#Cc1cnc(N)c2c(csc12)c3ccc(NC(=O)Nc4cccc(C)c4)cc3

>  <Data Validity Comment>  (133) 
nan

>  <Document Journal>  (133) 
nan

>  <Document Year>  (133) 
nan

>  <SRC ID>  (133) 
7

>  <UO Units>  (133) 
UO_0000065

>  <Potential Duplicate>  (133) 
False

>  <Class>  (133) 
0

$$$$

     RDKit          2D

 19 21  0  0  0  0  0  0  0  0999 V2000
   -7.0969    9.7066    0.0000 Cl  0  0  0  0  0  0  0  0  0  0  0  0
   -5.9821    8.7029    0.0000 C   0  0  0  0  0  0  0  0  0  0  0  0
   -4.5556    9.1664    0.0000 C   0  0  0  0  0  0  0  0  0  0  0  0
   -3.4408    8.1628    0.0000 C   0  0  0  0  0  0  0  0  0  0  0  0
   -3.7527    6.6955    0.0000 C   0  0  0  0  0  0  0  0  0  0  0  0
   -5.1793    6.2320    0.0000 C   0  0  0  0  0  0  0  0  0  0  0  0
   -6.2940    7.2357    0.0000 C   0  0  0  0  0  0  0  0  0  0  0  0
   -2.6380    5.6918    0.0000 C   0  0  0  0  0  0  0  0  0  0  0  0
   -1.2114    6.1554    0.0000 O   0  0  0  0  0  0  0  0  0  0  0  0
   -2.9499    4.2246    0.0000 N   0  0  0  0  0  0  0  0  0  0  0  0
   -1.8351    3.2209    0.0000 C   0  0  0  0  0  0  0  0  0  0  0  0
   -0.4086    3.6844    0.0000 C   0  0  0  0  0  0  0  0  0  0  0  0
    0.7062    2.6807    0.0000 C   0  0  0  0  0  0  0  0  0  0  0  0
    0.3943    1.2135    0.0000 C   0  0  0  0  0  0  0  0  0  0  0  0
    1.2760    0.0000    0.0000 N   0  0  0  0  0  0  0  0  0  0  0  0
    0.3943   -1.2135    0.0000 N   0  0  0  0  0  0  0  0  0  0  0  0
   -1.0323   -0.7500    0.0000 C   0  0  0  0  0  0  0  0  0  0  0  0
   -1.0323    0.7500    0.0000 C   0  0  0  0  0  0  0  0  0  0  0  0
   -2.1470    1.7537    0.0000 C   0  0  0  0  0  0  0  0  0  0  0  0
  1  2  1  0
  2  3  2  0
  3  4  1  0
  4  5  2  0
  5  6  1  0
  6  7  2  0
  5  8  1  0
  8  9  2  0
  8 10  1  0
 10 11  1  0
 11 12  2  0
 12 13  1  0
 13 14  2  0
 14 15  1  0
 15 16  1  0
 16 17  2  0
 17 18  1  0
 18 19  2  0
  7  2  1  0
 19 11  1  0
 18 14  1  0
M  END
>  <Molecule>  (134) 
CHEMBL1973808

>  <Standard Type>  (134) 
Ki

>  <Standard Relation>  (134) 
>

>  <Standard Value>  (134) 
1584.89

>  <Standard Units>  (134) 
nM

>  <pChEMBL Value>  (134) 
nan

>  <Comment>  (134) 
inactive

>  <Compound Key>  (134) 
SID103904664

>  <Assay>  (134) 
CHEMBL1963742

>  <Assay Description>  (134) 
PUBCHEM_BIOASSAY: Navigating the Kinome. (Class of assay: other) Panel member name: JAK3

>  <BAO Format>  (134) 
assay format

>  <Target>  (134) 
CHEMBL2148

>  <Target Pref. Name>  (134) 
Tyrosine-protein kinase JAK3

>  <Target Organism>  (134) 
Homo sapiens

>  <Target Type>  (134) 
SINGLE PROTEIN

>  <Document>  (134) 
CHEMBL1201862

>  <Source>  (134) 
PubChem BioAssays

>  <Max Phase>  (134) 
0

>  <#Ro5 Violations>  (134) 
0

>  <Molecular Weight>  (134) 
271.71

>  <Ligand Efficiency BEI>  (134) 
nan

>  <Ligand Efficiency LE>  (134) 
nan

>  <Ligand Efficiency LLE>  (134) 
nan

>  <Ligand Efficiency SEI>  (134) 
nan

>  <ALogP>  (134) 
3.47

>  <Assay Organism>  (134) 
nan

>  <Assay Tissue ChEMBL ID>  (134) 
nan

>  <Assay Tissue Name>  (134) 
nan

>  <Assay Cell Type>  (134) 
nan

>  <Assay Subcellular Fraction>  (134) 
nan

>  <Organism Tax ID>  (134) 
9606

>  <BAO Format ID>  (134) 
BAO_0000019

>  <Published Type>  (134) 
nan

>  <Published Relation>  (134) 
nan

>  <Published Value>  (134) 
nan

>  <Published Units>  (134) 
nan

>  <Canonical Smiles>  (134) 
Clc1ccc(cc1)C(=O)Nc2ccc3[nH]ncc3c2

>  <Data Validity Comment>  (134) 
nan

>  <Document Journal>  (134) 
nan

>  <Document Year>  (134) 
nan

>  <SRC ID>  (134) 
7

>  <UO Units>  (134) 
UO_0000065

>  <Potential Duplicate>  (134) 
False

>  <Class>  (134) 
0

$$$$

     RDKit          2D

 28 31  0  0  0  0  0  0  0  0999 V2000
  -12.7984    6.2797    0.0000 C   0  0  0  0  0  0  0  0  0  0  0  0
  -11.7947    7.3945    0.0000 C   0  0  0  0  0  0  0  0  0  0  0  0
  -12.2583    8.8210    0.0000 O   0  0  0  0  0  0  0  0  0  0  0  0
  -10.3275    7.0826    0.0000 N   0  0  0  0  0  0  0  0  0  0  0  0
   -9.3238    8.1973    0.0000 C   0  0  0  0  0  0  0  0  0  0  0  0
   -9.7874    9.6239    0.0000 C   0  0  0  0  0  0  0  0  0  0  0  0
   -8.7837   10.7386    0.0000 C   0  0  0  0  0  0  0  0  0  0  0  0
   -7.3164   10.4267    0.0000 C   0  0  0  0  0  0  0  0  0  0  0  0
   -6.8529    9.0002    0.0000 C   0  0  0  0  0  0  0  0  0  0  0  0
   -5.3857    8.6883    0.0000 C   0  0  0  0  0  0  0  0  0  0  0  0
   -4.9222    7.2617    0.0000 N   0  0  0  0  0  0  0  0  0  0  0  0
   -3.4549    6.9498    0.0000 C   0  0  0  0  0  0  0  0  0  0  0  0
   -2.6380    5.6918    0.0000 C   0  0  0  0  0  0  0  0  0  0  0  0
   -2.9499    4.2246    0.0000 N   0  0  0  0  0  0  0  0  0  0  0  0
   -1.8351    3.2209    0.0000 C   0  0  0  0  0  0  0  0  0  0  0  0
   -0.4086    3.6844    0.0000 C   0  0  0  0  0  0  0  0  0  0  0  0
    0.7062    2.6807    0.0000 C   0  0  0  0  0  0  0  0  0  0  0  0
    0.3943    1.2135    0.0000 C   0  0  0  0  0  0  0  0  0  0  0  0
    1.2760    0.0000    0.0000 N   0  0  0  0  0  0  0  0  0  0  0  0
    0.3943   -1.2135    0.0000 N   0  0  0  0  0  0  0  0  0  0  0  0
   -1.0323   -0.7500    0.0000 C   0  0  0  0  0  0  0  0  0  0  0  0
   -1.0323    0.7500    0.0000 C   0  0  0  0  0  0  0  0  0  0  0  0
   -2.1470    1.7537    0.0000 C   0  0  0  0  0  0  0  0  0  0  0  0
   -1.3800    6.5088    0.0000 C   0  0  0  0  0  0  0  0  0  0  0  0
    0.0872    6.1969    0.0000 O   0  0  0  0  0  0  0  0  0  0  0  0
   -2.1969    7.7668    0.0000 C   0  0  0  0  0  0  0  0  0  0  0  0
   -1.8851    9.2340    0.0000 O   0  0  0  0  0  0  0  0  0  0  0  0
   -7.8566    7.8854    0.0000 C   0  0  0  0  0  0  0  0  0  0  0  0
  1  2  1  0
  2  3  2  0
  2  4  1  0
  4  5  1  0
  5  6  2  0
  6  7  1  0
  7  8  2  0
  8  9  1  0
  9 10  1  0
 10 11  1  0
 11 12  1  0
 12 13  2  0
 13 14  1  0
 14 15  1  0
 15 16  2  0
 16 17  1  0
 17 18  2  0
 18 19  1  0
 19 20  1  0
 20 21  2  0
 21 22  1  0
 22 23  2  0
 13 24  1  0
 24 25  2  0
 24 26  1  0
 26 27  2  0
  9 28  2  0
 28  5  1  0
 26 12  1  0
 23 15  1  0
 22 18  1  0
M  END
>  <Molecule>  (135) 
CHEMBL1988608

>  <Standard Type>  (135) 
Ki

>  <Standard Relation>  (135) 
>

>  <Standard Value>  (135) 
1584.89

>  <Standard Units>  (135) 
nM

>  <pChEMBL Value>  (135) 
nan

>  <Comment>  (135) 
inactive

>  <Compound Key>  (135) 
SID103904658

>  <Assay>  (135) 
CHEMBL1963742

>  <Assay Description>  (135) 
PUBCHEM_BIOASSAY: Navigating the Kinome. (Class of assay: other) Panel member name: JAK3

>  <BAO Format>  (135) 
assay format

>  <Target>  (135) 
CHEMBL2148

>  <Target Pref. Name>  (135) 
Tyrosine-protein kinase JAK3

>  <Target Organism>  (135) 
Homo sapiens

>  <Target Type>  (135) 
SINGLE PROTEIN

>  <Document>  (135) 
CHEMBL1201862

>  <Source>  (135) 
PubChem BioAssays

>  <Max Phase>  (135) 
0

>  <#Ro5 Violations>  (135) 
0

>  <Molecular Weight>  (135) 
375.39

>  <Ligand Efficiency BEI>  (135) 
nan

>  <Ligand Efficiency LE>  (135) 
nan

>  <Ligand Efficiency LLE>  (135) 
nan

>  <Ligand Efficiency SEI>  (135) 
nan

>  <ALogP>  (135) 
2.47

>  <Assay Organism>  (135) 
nan

>  <Assay Tissue ChEMBL ID>  (135) 
nan

>  <Assay Tissue Name>  (135) 
nan

>  <Assay Cell Type>  (135) 
nan

>  <Assay Subcellular Fraction>  (135) 
nan

>  <Organism Tax ID>  (135) 
9606

>  <BAO Format ID>  (135) 
BAO_0000019

>  <Published Type>  (135) 
nan

>  <Published Relation>  (135) 
nan

>  <Published Value>  (135) 
nan

>  <Published Units>  (135) 
nan

>  <Canonical Smiles>  (135) 
CC(=O)Nc1cccc(CNC2=C(Nc3ccc4[nH]ncc4c3)C(=O)C2=O)c1

>  <Data Validity Comment>  (135) 
nan

>  <Document Journal>  (135) 
nan

>  <Document Year>  (135) 
nan

>  <SRC ID>  (135) 
7

>  <UO Units>  (135) 
UO_0000065

>  <Potential Duplicate>  (135) 
False

>  <Class>  (135) 
0

$$$$

     RDKit          2D

 25 28  0  0  0  0  0  0  0  0999 V2000
    3.7500   -3.8971    0.0000 C   0  0  0  0  0  0  0  0  0  0  0  0
    3.0000   -2.5981    0.0000 C   0  0  0  0  0  0  0  0  0  0  0  0
    1.5000   -2.5981    0.0000 N   0  0  0  0  0  0  0  0  0  0  0  0
    0.7500   -1.2990    0.0000 C   0  0  0  0  0  0  0  0  0  0  0  0
    1.5000    0.0000    0.0000 C   0  0  0  0  0  0  0  0  0  0  0  0
    0.7500    1.2990    0.0000 C   0  0  0  0  0  0  0  0  0  0  0  0
    1.5000    2.5981    0.0000 N   0  0  0  0  0  0  0  0  0  0  0  0
   -0.7500    1.2990    0.0000 C   0  0  0  0  0  0  0  0  0  0  0  0
   -1.5000    0.0000    0.0000 C   0  0  0  0  0  0  0  0  0  0  0  0
   -0.7500   -1.2990    0.0000 C   0  0  0  0  0  0  0  0  0  0  0  0
   -1.5000   -2.5981    0.0000 C   0  0  0  0  0  0  0  0  0  0  0  0
   -3.0000   -2.5981    0.0000 C   0  0  0  0  0  0  0  0  0  0  0  0
   -3.7500   -3.8971    0.0000 C   0  0  0  0  0  0  0  0  0  0  0  0
   -3.0000   -5.1962    0.0000 C   0  0  0  0  0  0  0  0  0  0  0  0
   -3.7500   -6.4952    0.0000 N   0  0  0  0  0  0  0  0  0  0  0  0
   -1.5000   -5.1962    0.0000 C   0  0  0  0  0  0  0  0  0  0  0  0
   -0.7500   -3.8971    0.0000 C   0  0  0  0  0  0  0  0  0  0  0  0
    0.7500   -3.8971    0.0000 C   0  0  0  0  0  0  0  0  0  0  0  0
    2.1595   -4.4101    0.0000 O   0  0  0  0  0  0  0  0  0  0  0  0
    0.4895   -5.3743    0.0000 C   0  0  0  0  0  0  0  0  0  0  0  0
   -0.9200   -5.8874    0.0000 C   0  0  0  0  0  0  0  0  0  0  0  0
   -1.1805   -7.3646    0.0000 C   0  0  0  0  0  0  0  0  0  0  0  0
   -0.0314   -8.3287    0.0000 C   0  0  0  0  0  0  0  0  0  0  0  0
    1.3781   -7.8157    0.0000 C   0  0  0  0  0  0  0  0  0  0  0  0
    1.6386   -6.3385    0.0000 C   0  0  0  0  0  0  0  0  0  0  0  0
  1  2  1  0
  2  3  1  0
  3  4  1  0
  4  5  2  0
  5  6  1  0
  6  7  1  0
  6  8  2  0
  8  9  1  0
  9 10  2  0
 10 11  1  0
 11 12  2  0
 12 13  1  0
 13 14  2  0
 14 15  1  0
 14 16  1  0
 16 17  2  0
 17 18  1  0
 18 19  1  0
 18 20  1  0
 20 21  2  0
 21 22  1  0
 22 23  2  0
 23 24  1  0
 24 25  2  0
 18  3  1  0
 10  4  1  0
 17 11  1  0
 25 20  1  0
M  END
>  <Molecule>  (136) 
CHEMBL1991818

>  <Standard Type>  (136) 
Ki

>  <Standard Relation>  (136) 
=

>  <Standard Value>  (136) 
3162.28

>  <Standard Units>  (136) 
nM

>  <pChEMBL Value>  (136) 
5.5

>  <Comment>  (136) 
active

>  <Compound Key>  (136) 
SID103905655

>  <Assay>  (136) 
CHEMBL1963742

>  <Assay Description>  (136) 
PUBCHEM_BIOASSAY: Navigating the Kinome. (Class of assay: other) Panel member name: JAK3

>  <BAO Format>  (136) 
assay format

>  <Target>  (136) 
CHEMBL2148

>  <Target Pref. Name>  (136) 
Tyrosine-protein kinase JAK3

>  <Target Organism>  (136) 
Homo sapiens

>  <Target Type>  (136) 
SINGLE PROTEIN

>  <Document>  (136) 
CHEMBL1201862

>  <Source>  (136) 
PubChem BioAssays

>  <Max Phase>  (136) 
0

>  <#Ro5 Violations>  (136) 
0

>  <Molecular Weight>  (136) 
331.42

>  <Ligand Efficiency BEI>  (136) 
nan

>  <Ligand Efficiency LE>  (136) 
nan

>  <Ligand Efficiency LLE>  (136) 
nan

>  <Ligand Efficiency SEI>  (136) 
nan

>  <ALogP>  (136) 
3.55

>  <Assay Organism>  (136) 
nan

>  <Assay Tissue ChEMBL ID>  (136) 
nan

>  <Assay Tissue Name>  (136) 
nan

>  <Assay Cell Type>  (136) 
nan

>  <Assay Subcellular Fraction>  (136) 
nan

>  <Organism Tax ID>  (136) 
9606

>  <BAO Format ID>  (136) 
BAO_0000019

>  <Published Type>  (136) 
nan

>  <Published Relation>  (136) 
nan

>  <Published Value>  (136) 
nan

>  <Published Units>  (136) 
nan

>  <Canonical Smiles>  (136) 
CCN1c2cc(N)ccc2c3ccc(N)cc3C1(O)c4ccccc4

>  <Data Validity Comment>  (136) 
nan

>  <Document Journal>  (136) 
nan

>  <Document Year>  (136) 
nan

>  <SRC ID>  (136) 
7

>  <UO Units>  (136) 
UO_0000065

>  <Potential Duplicate>  (136) 
False

>  <Class>  (136) 
1

$$$$

     RDKit          2D

 32 36  0  0  0  0  0  0  0  0999 V2000
   -3.5736    1.2902    0.0000 N   0  0  0  0  0  0  0  0  0  0  0  0
   -2.1470    1.7537    0.0000 C   0  0  0  0  0  0  0  0  0  0  0  0
   -1.8351    3.2209    0.0000 N   0  0  0  0  0  0  0  0  0  0  0  0
   -0.4086    3.6844    0.0000 C   0  0  0  0  0  0  0  0  0  0  0  0
    0.7062    2.6807    0.0000 C   0  0  0  0  0  0  0  0  0  0  0  0
    2.1328    3.1443    0.0000 C   0  0  0  0  0  0  0  0  0  0  0  0
    2.5963    4.5709    0.0000 C   0  0  0  0  0  0  0  0  0  0  0  0
    4.0963    4.5709    0.0000 O   0  0  0  0  0  0  0  0  0  0  0  0
    4.5598    3.1443    0.0000 C   0  0  0  0  0  0  0  0  0  0  0  0
    3.3463    2.2626    0.0000 C   0  0  0  0  0  0  0  0  0  0  0  0
    0.3943    1.2135    0.0000 C   0  0  0  0  0  0  0  0  0  0  0  0
    1.2760    0.0000    0.0000 S   0  0  0  0  0  0  0  0  0  0  0  0
    0.3943   -1.2135    0.0000 C   0  0  0  0  0  0  0  0  0  0  0  0
   -1.0323   -0.7500    0.0000 C   0  0  0  0  0  0  0  0  0  0  0  0
   -2.2458   -1.6317    0.0000 C   0  0  0  0  0  0  0  0  0  0  0  0
   -3.6161   -1.0216    0.0000 C   0  0  0  0  0  0  0  0  0  0  0  0
   -4.8297   -1.9033    0.0000 C   0  0  0  0  0  0  0  0  0  0  0  0
   -4.6729   -3.3950    0.0000 C   0  0  0  0  0  0  0  0  0  0  0  0
   -5.8864   -4.2767    0.0000 N   0  0  0  0  0  0  0  0  0  0  0  0
   -7.2567   -3.6666    0.0000 C   0  0  0  0  0  0  0  0  0  0  0  0
   -7.4135   -2.1748    0.0000 O   0  0  0  0  0  0  0  0  0  0  0  0
   -8.4702   -4.5483    0.0000 N   0  0  0  0  0  0  0  0  0  0  0  0
   -9.8406   -3.9382    0.0000 C   0  0  0  0  0  0  0  0  0  0  0  0
   -9.9973   -2.4464    0.0000 C   0  0  0  0  0  0  0  0  0  0  0  0
  -11.3677   -1.8363    0.0000 C   0  0  0  0  0  0  0  0  0  0  0  0
  -12.5812   -2.7180    0.0000 C   0  0  0  0  0  0  0  0  0  0  0  0
  -12.4244   -4.2098    0.0000 C   0  0  0  0  0  0  0  0  0  0  0  0
  -11.0541   -4.8199    0.0000 C   0  0  0  0  0  0  0  0  0  0  0  0
  -10.8973   -6.3116    0.0000 F   0  0  0  0  0  0  0  0  0  0  0  0
   -3.3025   -4.0051    0.0000 C   0  0  0  0  0  0  0  0  0  0  0  0
   -2.0890   -3.1235    0.0000 C   0  0  0  0  0  0  0  0  0  0  0  0
   -1.0323    0.7500    0.0000 C   0  0  0  0  0  0  0  0  0  0  0  0
  1  2  1  0
  2  3  2  0
  3  4  1  0
  4  5  2  0
  5  6  1  0
  6  7  2  0
  7  8  1  0
  8  9  1  0
  9 10  2  0
  5 11  1  0
 11 12  1  0
 12 13  1  0
 13 14  2  0
 14 15  1  0
 15 16  2  0
 16 17  1  0
 17 18  2  0
 18 19  1  0
 19 20  1  0
 20 21  2  0
 20 22  1  0
 22 23  1  0
 23 24  2  0
 24 25  1  0
 25 26  2  0
 26 27  1  0
 27 28  2  0
 28 29  1  0
 18 30  1  0
 30 31  2  0
 14 32  1  0
 32  2  1  0
 10  6  1  0
 32 11  2  0
 31 15  1  0
 28 23  1  0
M  END
>  <Molecule>  (137) 
CHEMBL1965570

>  <Standard Type>  (137) 
Ki

>  <Standard Relation>  (137) 
>

>  <Standard Value>  (137) 
1584.89

>  <Standard Units>  (137) 
nM

>  <pChEMBL Value>  (137) 
nan

>  <Comment>  (137) 
inactive

>  <Compound Key>  (137) 
SID103904286

>  <Assay>  (137) 
CHEMBL1963742

>  <Assay Description>  (137) 
PUBCHEM_BIOASSAY: Navigating the Kinome. (Class of assay: other) Panel member name: JAK3

>  <BAO Format>  (137) 
assay format

>  <Target>  (137) 
CHEMBL2148

>  <Target Pref. Name>  (137) 
Tyrosine-protein kinase JAK3

>  <Target Organism>  (137) 
Homo sapiens

>  <Target Type>  (137) 
SINGLE PROTEIN

>  <Document>  (137) 
CHEMBL1201862

>  <Source>  (137) 
PubChem BioAssays

>  <Max Phase>  (137) 
0

>  <#Ro5 Violations>  (137) 
1

>  <Molecular Weight>  (137) 
444.49

>  <Ligand Efficiency BEI>  (137) 
nan

>  <Ligand Efficiency LE>  (137) 
nan

>  <Ligand Efficiency LLE>  (137) 
nan

>  <Ligand Efficiency SEI>  (137) 
nan

>  <ALogP>  (137) 
6.59

>  <Assay Organism>  (137) 
nan

>  <Assay Tissue ChEMBL ID>  (137) 
nan

>  <Assay Tissue Name>  (137) 
nan

>  <Assay Cell Type>  (137) 
nan

>  <Assay Subcellular Fraction>  (137) 
nan

>  <Organism Tax ID>  (137) 
9606

>  <BAO Format ID>  (137) 
BAO_0000019

>  <Published Type>  (137) 
nan

>  <Published Relation>  (137) 
nan

>  <Published Value>  (137) 
nan

>  <Published Units>  (137) 
nan

>  <Canonical Smiles>  (137) 
Nc1ncc(c2cocc2)c3scc(c4ccc(NC(=O)Nc5ccccc5F)cc4)c13

>  <Data Validity Comment>  (137) 
nan

>  <Document Journal>  (137) 
nan

>  <Document Year>  (137) 
nan

>  <SRC ID>  (137) 
7

>  <UO Units>  (137) 
UO_0000065

>  <Potential Duplicate>  (137) 
False

>  <Class>  (137) 
0

$$$$

     RDKit          2D

 32 34  0  0  0  0  0  0  0  0999 V2000
    3.7500   -1.2990    0.0000 C   0  0  0  0  0  0  0  0  0  0  0  0
    3.0000    0.0000    0.0000 O   0  0  0  0  0  0  0  0  0  0  0  0
    1.5000    0.0000    0.0000 C   0  0  0  0  0  0  0  0  0  0  0  0
    0.7500   -1.2990    0.0000 C   0  0  0  0  0  0  0  0  0  0  0  0
   -0.7500   -1.2990    0.0000 C   0  0  0  0  0  0  0  0  0  0  0  0
   -1.5000   -2.5981    0.0000 N   0  0  0  0  0  0  0  0  0  0  0  0
   -3.0000   -2.5981    0.0000 C   0  0  0  0  0  0  0  0  0  0  0  0
   -3.7500   -1.2990    0.0000 N   0  0  0  0  0  0  0  0  0  0  0  0
   -5.2500   -1.2990    0.0000 C   0  0  0  0  0  0  0  0  0  0  0  0
   -6.0000   -2.5981    0.0000 C   0  0  0  0  0  0  0  0  0  0  0  0
   -5.2500   -3.8971    0.0000 C   0  0  0  0  0  0  0  0  0  0  0  0
   -6.0000   -5.1962    0.0000 N   0  0  0  0  0  0  0  0  0  0  0  0
   -5.2500   -6.4952    0.0000 C   0  0  0  0  0  0  0  0  0  0  0  0
   -3.7500   -6.4952    0.0000 C   0  0  0  0  0  0  0  0  0  0  0  0
   -3.0000   -7.7942    0.0000 C   0  0  0  0  0  0  0  0  0  0  0  0
   -3.7500   -9.0933    0.0000 C   0  0  0  0  0  0  0  0  0  0  0  0
   -5.2500   -9.0933    0.0000 C   0  0  0  0  0  0  0  0  0  0  0  0
   -6.0000   -7.7942    0.0000 C   0  0  0  0  0  0  0  0  0  0  0  0
   -7.5000   -7.7942    0.0000 C   0  0  0  0  0  0  0  0  0  0  0  0
   -8.2500   -6.4952    0.0000 O   0  0  0  0  0  0  0  0  0  0  0  0
   -8.2500   -9.0933    0.0000 N   0  0  0  0  0  0  0  0  0  0  0  0
   -3.7500   -3.8971    0.0000 N   0  0  0  0  0  0  0  0  0  0  0  0
   -7.5000   -2.5981    0.0000 N   0  0  0  0  0  0  0  0  0  0  0  0
   -8.2500   -3.8971    0.0000 O   0  0  0  0  0  0  0  0  0  0  0  0
   -8.2500   -1.2990    0.0000 O   0  0  0  0  0  0  0  0  0  0  0  0
   -1.5000    0.0000    0.0000 C   0  0  0  0  0  0  0  0  0  0  0  0
   -0.7500    1.2990    0.0000 C   0  0  0  0  0  0  0  0  0  0  0  0
   -1.5000    2.5981    0.0000 O   0  0  0  0  0  0  0  0  0  0  0  0
   -0.7500    3.8971    0.0000 C   0  0  0  0  0  0  0  0  0  0  0  0
    0.7500    1.2990    0.0000 C   0  0  0  0  0  0  0  0  0  0  0  0
    1.5000    2.5981    0.0000 O   0  0  0  0  0  0  0  0  0  0  0  0
    3.0000    2.5981    0.0000 C   0  0  0  0  0  0  0  0  0  0  0  0
  1  2  1  0
  2  3  1  0
  3  4  2  0
  4  5  1  0
  5  6  1  0
  6  7  1  0
  7  8  2  0
  8  9  1  0
  9 10  2  0
 10 11  1  0
 11 12  1  0
 12 13  1  0
 13 14  2  0
 14 15  1  0
 15 16  2  0
 16 17  1  0
 17 18  2  0
 18 19  1  0
 19 20  2  0
 19 21  1  0
 11 22  2  0
 10 23  1  0
 23 24  2  0
 23 25  1  0
  5 26  2  0
 26 27  1  0
 27 28  1  0
 28 29  1  0
 27 30  2  0
 30 31  1  0
 31 32  1  0
 30  3  1  0
 22  7  1  0
 18 13  1  0
M  CHG  2  23   1  25  -1
M  END
>  <Molecule>  (138) 
CHEMBL1241473

>  <Standard Type>  (138) 
Ki

>  <Standard Relation>  (138) 
=

>  <Standard Value>  (138) 
63.1

>  <Standard Units>  (138) 
nM

>  <pChEMBL Value>  (138) 
7.2

>  <Comment>  (138) 
active

>  <Compound Key>  (138) 
SID103904595

>  <Assay>  (138) 
CHEMBL1963742

>  <Assay Description>  (138) 
PUBCHEM_BIOASSAY: Navigating the Kinome. (Class of assay: other) Panel member name: JAK3

>  <BAO Format>  (138) 
assay format

>  <Target>  (138) 
CHEMBL2148

>  <Target Pref. Name>  (138) 
Tyrosine-protein kinase JAK3

>  <Target Organism>  (138) 
Homo sapiens

>  <Target Type>  (138) 
SINGLE PROTEIN

>  <Document>  (138) 
CHEMBL1201862

>  <Source>  (138) 
PubChem BioAssays

>  <Max Phase>  (138) 
0

>  <#Ro5 Violations>  (138) 
0

>  <Molecular Weight>  (138) 
440.42

>  <Ligand Efficiency BEI>  (138) 
nan

>  <Ligand Efficiency LE>  (138) 
nan

>  <Ligand Efficiency LLE>  (138) 
nan

>  <Ligand Efficiency SEI>  (138) 
nan

>  <ALogP>  (138) 
3.0

>  <Assay Organism>  (138) 
nan

>  <Assay Tissue ChEMBL ID>  (138) 
nan

>  <Assay Tissue Name>  (138) 
nan

>  <Assay Cell Type>  (138) 
nan

>  <Assay Subcellular Fraction>  (138) 
nan

>  <Organism Tax ID>  (138) 
9606

>  <BAO Format ID>  (138) 
BAO_0000019

>  <Published Type>  (138) 
nan

>  <Published Relation>  (138) 
nan

>  <Published Value>  (138) 
nan

>  <Published Units>  (138) 
nan

>  <Canonical Smiles>  (138) 
COc1cc(Nc2ncc(c(Nc3ccccc3C(=O)N)n2)[N+](=O)[O-])cc(OC)c1OC

>  <Data Validity Comment>  (138) 
nan

>  <Document Journal>  (138) 
nan

>  <Document Year>  (138) 
nan

>  <SRC ID>  (138) 
7

>  <UO Units>  (138) 
UO_0000065

>  <Potential Duplicate>  (138) 
False

>  <Class>  (138) 
1

$$$$

     RDKit          2D

 18 20  0  0  0  0  0  0  0  0999 V2000
   -7.4638   -1.0415    0.0000 C   0  0  0  0  0  0  0  0  0  0  0  0
   -5.9720   -1.1983    0.0000 C   0  0  0  0  0  0  0  0  0  0  0  0
   -4.9684   -0.0836    0.0000 C   0  0  0  0  0  0  0  0  0  0  0  0
   -3.5980   -0.6937    0.0000 C   0  0  0  0  0  0  0  0  0  0  0  0
   -2.2990    0.0563    0.0000 C   0  0  0  0  0  0  0  0  0  0  0  0
   -3.7548   -2.1855    0.0000 C   0  0  0  0  0  0  0  0  0  0  0  0
   -2.6401   -3.1891    0.0000 C   0  0  0  0  0  0  0  0  0  0  0  0
   -1.2135   -2.7256    0.0000 C   0  0  0  0  0  0  0  0  0  0  0  0
    0.0000   -3.6073    0.0000 C   0  0  0  0  0  0  0  0  0  0  0  0
    0.0000   -5.1073    0.0000 O   0  0  0  0  0  0  0  0  0  0  0  0
    1.2135   -2.7256    0.0000 N   0  0  0  0  0  0  0  0  0  0  0  0
    0.7500   -1.2990    0.0000 C   0  0  0  0  0  0  0  0  0  0  0  0
    1.5000    0.0000    0.0000 C   0  0  0  0  0  0  0  0  0  0  0  0
    0.7500    1.2990    0.0000 C   0  0  0  0  0  0  0  0  0  0  0  0
   -0.7500    1.2990    0.0000 C   0  0  0  0  0  0  0  0  0  0  0  0
   -1.5000    0.0000    0.0000 C   0  0  0  0  0  0  0  0  0  0  0  0
   -0.7500   -1.2990    0.0000 C   0  0  0  0  0  0  0  0  0  0  0  0
   -5.2220   -2.4973    0.0000 N   0  0  0  0  0  0  0  0  0  0  0  0
  1  2  1  0
  2  3  2  0
  3  4  1  0
  4  5  1  0
  4  6  2  0
  6  7  1  0
  7  8  2  3
  8  9  1  0
  9 10  2  0
  9 11  1  0
 11 12  1  0
 12 13  2  0
 13 14  1  0
 14 15  2  0
 15 16  1  0
 16 17  2  0
  6 18  1  0
 18  2  1  0
 17  8  1  0
 17 12  1  0
M  END
>  <Molecule>  (139) 
CHEMBL2002702

>  <Standard Type>  (139) 
Ki

>  <Standard Relation>  (139) 
=

>  <Standard Value>  (139) 
630.96

>  <Standard Units>  (139) 
nM

>  <pChEMBL Value>  (139) 
6.2

>  <Comment>  (139) 
active

>  <Compound Key>  (139) 
SID103905112

>  <Assay>  (139) 
CHEMBL1963742

>  <Assay Description>  (139) 
PUBCHEM_BIOASSAY: Navigating the Kinome. (Class of assay: other) Panel member name: JAK3

>  <BAO Format>  (139) 
assay format

>  <Target>  (139) 
CHEMBL2148

>  <Target Pref. Name>  (139) 
Tyrosine-protein kinase JAK3

>  <Target Organism>  (139) 
Homo sapiens

>  <Target Type>  (139) 
SINGLE PROTEIN

>  <Document>  (139) 
CHEMBL1201862

>  <Source>  (139) 
PubChem BioAssays

>  <Max Phase>  (139) 
0

>  <#Ro5 Violations>  (139) 
0

>  <Molecular Weight>  (139) 
238.29

>  <Ligand Efficiency BEI>  (139) 
nan

>  <Ligand Efficiency LE>  (139) 
nan

>  <Ligand Efficiency LLE>  (139) 
nan

>  <Ligand Efficiency SEI>  (139) 
nan

>  <ALogP>  (139) 
3.12

>  <Assay Organism>  (139) 
nan

>  <Assay Tissue ChEMBL ID>  (139) 
nan

>  <Assay Tissue Name>  (139) 
nan

>  <Assay Cell Type>  (139) 
nan

>  <Assay Subcellular Fraction>  (139) 
nan

>  <Organism Tax ID>  (139) 
9606

>  <BAO Format ID>  (139) 
BAO_0000019

>  <Published Type>  (139) 
nan

>  <Published Relation>  (139) 
nan

>  <Published Value>  (139) 
nan

>  <Published Units>  (139) 
nan

>  <Canonical Smiles>  (139) 
Cc1cc(C)c(C=C2C(=O)Nc3ccccc23)[nH]1

>  <Data Validity Comment>  (139) 
nan

>  <Document Journal>  (139) 
nan

>  <Document Year>  (139) 
nan

>  <SRC ID>  (139) 
7

>  <UO Units>  (139) 
UO_0000065

>  <Potential Duplicate>  (139) 
False

>  <Class>  (139) 
1

$$$$

     RDKit          2D

 39 44  0  0  0  0  0  0  0  0999 V2000
  -12.0025   -3.4994    0.0000 C   0  0  0  0  0  0  0  0  0  0  0  0
  -10.5759   -3.0359    0.0000 O   0  0  0  0  0  0  0  0  0  0  0  0
   -9.4612   -4.0396    0.0000 C   0  0  0  0  0  0  0  0  0  0  0  0
   -8.0346   -3.5760    0.0000 C   0  0  0  0  0  0  0  0  0  0  0  0
   -6.9199   -4.5797    0.0000 O   0  0  0  0  0  0  0  0  0  0  0  0
   -5.4933   -4.1162    0.0000 C   0  0  0  0  0  0  0  0  0  0  0  0
   -5.1814   -2.6490    0.0000 C   0  0  0  0  0  0  0  0  0  0  0  0
   -3.7548   -2.1855    0.0000 C   0  0  0  0  0  0  0  0  0  0  0  0
   -2.6401   -3.1891    0.0000 C   0  0  0  0  0  0  0  0  0  0  0  0
   -2.9520   -4.6564    0.0000 C   0  0  0  0  0  0  0  0  0  0  0  0
   -4.3786   -5.1199    0.0000 C   0  0  0  0  0  0  0  0  0  0  0  0
   -1.2135   -2.7256    0.0000 N   0  0  0  0  0  0  0  0  0  0  0  0
    0.0000   -3.6073    0.0000 N   0  0  0  0  0  0  0  0  0  0  0  0
    1.2135   -2.7256    0.0000 C   0  0  0  0  0  0  0  0  0  0  0  0
    2.6401   -3.1891    0.0000 C   0  0  0  0  0  0  0  0  0  0  0  0
    2.9520   -4.6564    0.0000 C   0  0  0  0  0  0  0  0  0  0  0  0
    4.3786   -5.1199    0.0000 C   0  0  0  0  0  0  0  0  0  0  0  0
    5.4933   -4.1162    0.0000 C   0  0  0  0  0  0  0  0  0  0  0  0
    6.9199   -4.5797    0.0000 N   0  0  0  0  0  0  0  0  0  0  0  0
    7.2317   -6.0469    0.0000 C   0  0  0  0  0  0  0  0  0  0  0  0
    8.6021   -6.6571    0.0000 O   0  0  0  0  0  0  0  0  0  0  0  0
    8.4453   -8.1488    0.0000 C   0  0  0  0  0  0  0  0  0  0  0  0
    9.4490   -9.2636    0.0000 C   0  0  0  0  0  0  0  0  0  0  0  0
   10.9162   -8.9517    0.0000 C   0  0  0  0  0  0  0  0  0  0  0  0
    8.9854  -10.6901    0.0000 C   0  0  0  0  0  0  0  0  0  0  0  0
    7.5182  -11.0020    0.0000 C   0  0  0  0  0  0  0  0  0  0  0  0
    7.0547  -12.4286    0.0000 C   0  0  0  0  0  0  0  0  0  0  0  0
    6.5145   -9.8873    0.0000 C   0  0  0  0  0  0  0  0  0  0  0  0
    6.9780   -8.4607    0.0000 C   0  0  0  0  0  0  0  0  0  0  0  0
    6.2280   -7.1617    0.0000 N   0  0  0  0  0  0  0  0  0  0  0  0
    5.1814   -2.6490    0.0000 C   0  0  0  0  0  0  0  0  0  0  0  0
    3.7548   -2.1855    0.0000 C   0  0  0  0  0  0  0  0  0  0  0  0
    0.7500   -1.2990    0.0000 C   0  0  0  0  0  0  0  0  0  0  0  0
    1.5000    0.0000    0.0000 C   0  0  0  0  0  0  0  0  0  0  0  0
    3.0000    0.0000    0.0000 N   0  0  0  0  0  0  0  0  0  0  0  0
    0.7500    1.2990    0.0000 N   0  0  0  0  0  0  0  0  0  0  0  0
   -0.7500    1.2990    0.0000 C   0  0  0  0  0  0  0  0  0  0  0  0
   -1.5000    0.0000    0.0000 N   0  0  0  0  0  0  0  0  0  0  0  0
   -0.7500   -1.2990    0.0000 C   0  0  0  0  0  0  0  0  0  0  0  0
  1  2  1  0
  2  3  1  0
  3  4  1  0
  4  5  1  0
  5  6  1  0
  6  7  1  0
  7  8  1  0
  8  9  1  0
  9 10  1  0
 10 11  1  0
  9 12  1  0
 12 13  1  0
 13 14  2  0
 14 15  1  0
 15 16  2  0
 16 17  1  0
 17 18  2  0
 18 19  1  0
 19 20  1  0
 20 21  1  0
 21 22  1  0
 22 23  2  0
 23 24  1  0
 23 25  1  0
 25 26  2  0
 26 27  1  0
 26 28  1  0
 28 29  2  0
 29 30  1  0
 18 31  1  0
 31 32  2  0
 14 33  1  0
 33 34  2  0
 34 35  1  0
 34 36  1  0
 36 37  2  0
 37 38  1  0
 38 39  2  0
 11  6  1  0
 39 12  1  0
 32 15  1  0
 30 20  2  0
 29 22  1  0
 39 33  1  0
M  END
>  <Molecule>  (140) 
CHEMBL1984162

>  <Standard Type>  (140) 
Ki

>  <Standard Relation>  (140) 
=

>  <Standard Value>  (140) 
10.0

>  <Standard Units>  (140) 
nM

>  <pChEMBL Value>  (140) 
8.0

>  <Comment>  (140) 
active

>  <Compound Key>  (140) 
SID103904784

>  <Assay>  (140) 
CHEMBL1963742

>  <Assay Description>  (140) 
PUBCHEM_BIOASSAY: Navigating the Kinome. (Class of assay: other) Panel member name: JAK3

>  <BAO Format>  (140) 
assay format

>  <Target>  (140) 
CHEMBL2148

>  <Target Pref. Name>  (140) 
Tyrosine-protein kinase JAK3

>  <Target Organism>  (140) 
Homo sapiens

>  <Target Type>  (140) 
SINGLE PROTEIN

>  <Document>  (140) 
CHEMBL1201862

>  <Source>  (140) 
PubChem BioAssays

>  <Max Phase>  (140) 
0

>  <#Ro5 Violations>  (140) 
2

>  <Molecular Weight>  (140) 
527.63

>  <Ligand Efficiency BEI>  (140) 
nan

>  <Ligand Efficiency LE>  (140) 
nan

>  <Ligand Efficiency LLE>  (140) 
nan

>  <Ligand Efficiency SEI>  (140) 
nan

>  <ALogP>  (140) 
5.72

>  <Assay Organism>  (140) 
nan

>  <Assay Tissue ChEMBL ID>  (140) 
nan

>  <Assay Tissue Name>  (140) 
nan

>  <Assay Cell Type>  (140) 
nan

>  <Assay Subcellular Fraction>  (140) 
nan

>  <Organism Tax ID>  (140) 
9606

>  <BAO Format ID>  (140) 
BAO_0000019

>  <Published Type>  (140) 
nan

>  <Published Relation>  (140) 
nan

>  <Published Value>  (140) 
nan

>  <Published Units>  (140) 
nan

>  <Canonical Smiles>  (140) 
COCCOC1CCC(CC1)n2nc(c3ccc(Nc4oc5c(C)cc(C)cc5n4)cc3)c6c(N)ncnc26

>  <Data Validity Comment>  (140) 
nan

>  <Document Journal>  (140) 
nan

>  <Document Year>  (140) 
nan

>  <SRC ID>  (140) 
7

>  <UO Units>  (140) 
UO_0000065

>  <Potential Duplicate>  (140) 
False

>  <Class>  (140) 
1

$$$$

     RDKit          2D

 35 39  0  0  0  0  0  0  0  0999 V2000
   -1.8373   -5.6601    0.0000 N   0  0  0  0  0  0  0  0  0  0  0  0
   -2.9520   -4.6564    0.0000 C   0  0  0  0  0  0  0  0  0  0  0  0
   -4.3786   -5.1199    0.0000 C   0  0  0  0  0  0  0  0  0  0  0  0
   -4.6904   -6.5871    0.0000 O   0  0  0  0  0  0  0  0  0  0  0  0
   -6.1170   -7.0506    0.0000 C   0  0  0  0  0  0  0  0  0  0  0  0
   -7.2317   -6.0469    0.0000 C   0  0  0  0  0  0  0  0  0  0  0  0
   -8.6583   -6.5105    0.0000 N   0  0  0  0  0  0  0  0  0  0  0  0
   -8.9702   -7.9777    0.0000 C   0  0  0  0  0  0  0  0  0  0  0  0
   -7.8555   -8.9814    0.0000 C   0  0  0  0  0  0  0  0  0  0  0  0
   -6.4289   -8.5179    0.0000 C   0  0  0  0  0  0  0  0  0  0  0  0
   -8.1673  -10.4486    0.0000 C   0  0  0  0  0  0  0  0  0  0  0  0
   -9.5939  -10.9121    0.0000 C   0  0  0  0  0  0  0  0  0  0  0  0
   -9.9058  -12.3794    0.0000 C   0  0  0  0  0  0  0  0  0  0  0  0
   -8.7911  -13.3831    0.0000 C   0  0  0  0  0  0  0  0  0  0  0  0
   -9.1029  -14.8503    0.0000 N   0  0  0  0  0  0  0  0  0  0  0  0
   -7.3645  -12.9195    0.0000 C   0  0  0  0  0  0  0  0  0  0  0  0
   -7.0526  -11.4523    0.0000 C   0  0  0  0  0  0  0  0  0  0  0  0
   -6.2498  -13.9232    0.0000 C   0  0  0  0  0  0  0  0  0  0  0  0
   -6.5616  -15.3904    0.0000 O   0  0  0  0  0  0  0  0  0  0  0  0
   -4.8232  -13.4597    0.0000 C   0  0  0  0  0  0  0  0  0  0  0  0
   -3.7085  -14.4634    0.0000 C   0  0  0  0  0  0  0  0  0  0  0  0
   -2.2819  -13.9999    0.0000 C   0  0  0  0  0  0  0  0  0  0  0  0
   -1.9700  -12.5326    0.0000 C   0  0  0  0  0  0  0  0  0  0  0  0
   -3.0847  -11.5290    0.0000 C   0  0  0  0  0  0  0  0  0  0  0  0
   -4.5113  -11.9925    0.0000 C   0  0  0  0  0  0  0  0  0  0  0  0
   -2.6401   -3.1891    0.0000 C   0  0  0  0  0  0  0  0  0  0  0  0
   -1.2135   -2.7256    0.0000 C   0  0  0  0  0  0  0  0  0  0  0  0
    0.0000   -3.6073    0.0000 C   0  0  0  0  0  0  0  0  0  0  0  0
    1.2135   -2.7256    0.0000 N   0  0  0  0  0  0  0  0  0  0  0  0
    0.7500   -1.2990    0.0000 C   0  0  0  0  0  0  0  0  0  0  0  0
    1.5000    0.0000    0.0000 C   0  0  0  0  0  0  0  0  0  0  0  0
    0.7500    1.2990    0.0000 C   0  0  0  0  0  0  0  0  0  0  0  0
   -0.7500    1.2990    0.0000 C   0  0  0  0  0  0  0  0  0  0  0  0
   -1.5000    0.0000    0.0000 C   0  0  0  0  0  0  0  0  0  0  0  0
   -0.7500   -1.2990    0.0000 C   0  0  0  0  0  0  0  0  0  0  0  0
  1  2  1  0
  2  3  1  0
  3  4  1  0
  4  5  1  0
  5  6  2  0
  6  7  1  0
  7  8  2  0
  8  9  1  0
  9 10  2  0
  9 11  1  0
 11 12  2  0
 12 13  1  0
 13 14  2  0
 14 15  1  0
 14 16  1  0
 16 17  2  0
 16 18  1  0
 18 19  2  0
 18 20  1  0
 20 21  2  0
 21 22  1  0
 22 23  2  0
 23 24  1  0
 24 25  2  0
  2 26  1  0
 26 27  1  0
 27 28  2  0
 28 29  1  0
 29 30  1  0
 30 31  2  0
 31 32  1  0
 32 33  2  0
 33 34  1  0
 34 35  2  0
 10  5  1  0
 17 11  1  0
 25 20  1  0
 35 27  1  0
 35 30  1  0
M  END
>  <Molecule>  (141) 
CHEMBL1972125

>  <Standard Type>  (141) 
Ki

>  <Standard Relation>  (141) 
>

>  <Standard Value>  (141) 
1584.89

>  <Standard Units>  (141) 
nM

>  <pChEMBL Value>  (141) 
nan

>  <Comment>  (141) 
inactive

>  <Compound Key>  (141) 
SID103904473

>  <Assay>  (141) 
CHEMBL1963742

>  <Assay Description>  (141) 
PUBCHEM_BIOASSAY: Navigating the Kinome. (Class of assay: other) Panel member name: JAK3

>  <BAO Format>  (141) 
assay format

>  <Target>  (141) 
CHEMBL2148

>  <Target Pref. Name>  (141) 
Tyrosine-protein kinase JAK3

>  <Target Organism>  (141) 
Homo sapiens

>  <Target Type>  (141) 
SINGLE PROTEIN

>  <Document>  (141) 
CHEMBL1201862

>  <Source>  (141) 
PubChem BioAssays

>  <Max Phase>  (141) 
0

>  <#Ro5 Violations>  (141) 
0

>  <Molecular Weight>  (141) 
462.55

>  <Ligand Efficiency BEI>  (141) 
nan

>  <Ligand Efficiency LE>  (141) 
nan

>  <Ligand Efficiency LLE>  (141) 
nan

>  <Ligand Efficiency SEI>  (141) 
nan

>  <ALogP>  (141) 
4.99

>  <Assay Organism>  (141) 
nan

>  <Assay Tissue ChEMBL ID>  (141) 
nan

>  <Assay Tissue Name>  (141) 
nan

>  <Assay Cell Type>  (141) 
nan

>  <Assay Subcellular Fraction>  (141) 
nan

>  <Organism Tax ID>  (141) 
9606

>  <BAO Format ID>  (141) 
BAO_0000019

>  <Published Type>  (141) 
nan

>  <Published Relation>  (141) 
nan

>  <Published Value>  (141) 
nan

>  <Published Units>  (141) 
nan

>  <Canonical Smiles>  (141) 
NC(COc1cncc(c1)c2ccc(N)c(c2)C(=O)c3ccccc3)Cc4c[nH]c5ccccc45

>  <Data Validity Comment>  (141) 
nan

>  <Document Journal>  (141) 
nan

>  <Document Year>  (141) 
nan

>  <SRC ID>  (141) 
7

>  <UO Units>  (141) 
UO_0000065

>  <Potential Duplicate>  (141) 
False

>  <Class>  (141) 
0

$$$$

     RDKit          2D

 18 19  0  0  0  0  0  0  0  0999 V2000
   -3.4430   -0.7182    0.0000 C   0  0  0  0  0  0  0  0  0  0  0  0
   -3.7548   -2.1855    0.0000 C   0  0  0  0  0  0  0  0  0  0  0  0
   -5.1814   -2.6490    0.0000 O   0  0  0  0  0  0  0  0  0  0  0  0
   -2.6401   -3.1891    0.0000 N   0  0  0  0  0  0  0  0  0  0  0  0
   -1.2135   -2.7256    0.0000 C   0  0  0  0  0  0  0  0  0  0  0  0
   -0.0000   -3.6073    0.0000 C   0  0  0  0  0  0  0  0  0  0  0  0
    1.2135   -2.7256    0.0000 S   0  0  0  0  0  0  0  0  0  0  0  0
    0.7500   -1.2990    0.0000 C   0  0  0  0  0  0  0  0  0  0  0  0
    1.5000    0.0000    0.0000 C   0  0  0  0  0  0  0  0  0  0  0  0
    0.7500    1.2990    0.0000 C   0  0  0  0  0  0  0  0  0  0  0  0
   -0.7500    1.2990    0.0000 C   0  0  0  0  0  0  0  0  0  0  0  0
   -1.5000    2.5981    0.0000 Cl  0  0  0  0  0  0  0  0  0  0  0  0
   -1.5000    0.0000    0.0000 C   0  0  0  0  0  0  0  0  0  0  0  0
   -3.0000    0.0000    0.0000 Cl  0  0  0  0  0  0  0  0  0  0  0  0
   -0.7500   -1.2990    0.0000 C   0  0  0  0  0  0  0  0  0  0  0  0
   -0.0000   -5.1073    0.0000 C   0  0  0  0  0  0  0  0  0  0  0  0
    1.2990   -5.8573    0.0000 O   0  0  0  0  0  0  0  0  0  0  0  0
   -1.2990   -5.8573    0.0000 N   0  0  0  0  0  0  0  0  0  0  0  0
  1  2  1  0
  2  3  2  0
  2  4  1  0
  4  5  1  0
  5  6  2  0
  6  7  1  0
  7  8  1  0
  8  9  2  0
  9 10  1  0
 10 11  2  0
 11 12  1  0
 11 13  1  0
 13 14  1  0
 13 15  2  0
  6 16  1  0
 16 17  2  0
 16 18  1  0
 15  5  1  0
 15  8  1  0
M  END
>  <Molecule>  (142) 
CHEMBL1973142

>  <Standard Type>  (142) 
Ki

>  <Standard Relation>  (142) 
>

>  <Standard Value>  (142) 
1584.89

>  <Standard Units>  (142) 
nM

>  <pChEMBL Value>  (142) 
nan

>  <Comment>  (142) 
inactive

>  <Compound Key>  (142) 
SID103905605

>  <Assay>  (142) 
CHEMBL1963742

>  <Assay Description>  (142) 
PUBCHEM_BIOASSAY: Navigating the Kinome. (Class of assay: other) Panel member name: JAK3

>  <BAO Format>  (142) 
assay format

>  <Target>  (142) 
CHEMBL2148

>  <Target Pref. Name>  (142) 
Tyrosine-protein kinase JAK3

>  <Target Organism>  (142) 
Homo sapiens

>  <Target Type>  (142) 
SINGLE PROTEIN

>  <Document>  (142) 
CHEMBL1201862

>  <Source>  (142) 
PubChem BioAssays

>  <Max Phase>  (142) 
0

>  <#Ro5 Violations>  (142) 
0

>  <Molecular Weight>  (142) 
303.17

>  <Ligand Efficiency BEI>  (142) 
nan

>  <Ligand Efficiency LE>  (142) 
nan

>  <Ligand Efficiency LLE>  (142) 
nan

>  <Ligand Efficiency SEI>  (142) 
nan

>  <ALogP>  (142) 
3.27

>  <Assay Organism>  (142) 
nan

>  <Assay Tissue ChEMBL ID>  (142) 
nan

>  <Assay Tissue Name>  (142) 
nan

>  <Assay Cell Type>  (142) 
nan

>  <Assay Subcellular Fraction>  (142) 
nan

>  <Organism Tax ID>  (142) 
9606

>  <BAO Format ID>  (142) 
BAO_0000019

>  <Published Type>  (142) 
nan

>  <Published Relation>  (142) 
nan

>  <Published Value>  (142) 
nan

>  <Published Units>  (142) 
nan

>  <Canonical Smiles>  (142) 
CC(=O)Nc1c(sc2ccc(Cl)c(Cl)c12)C(=O)N

>  <Data Validity Comment>  (142) 
nan

>  <Document Journal>  (142) 
nan

>  <Document Year>  (142) 
nan

>  <SRC ID>  (142) 
7

>  <UO Units>  (142) 
UO_0000065

>  <Potential Duplicate>  (142) 
False

>  <Class>  (142) 
0

$$$$

     RDKit          2D

 33 37  0  0  0  0  0  0  0  0999 V2000
   -6.1170   -7.0506    0.0000 C   0  0  0  0  0  0  0  0  0  0  0  0
   -4.6904   -6.5871    0.0000 C   0  0  0  0  0  0  0  0  0  0  0  0
   -4.3786   -5.1199    0.0000 C   0  0  0  0  0  0  0  0  0  0  0  0
   -2.9520   -4.6564    0.0000 C   0  0  0  0  0  0  0  0  0  0  0  0
   -1.8373   -5.6601    0.0000 O   0  0  0  0  0  0  0  0  0  0  0  0
   -2.6401   -3.1891    0.0000 N   0  0  0  0  0  0  0  0  0  0  0  0
   -1.2135   -2.7256    0.0000 C   0  0  0  0  0  0  0  0  0  0  0  0
   -0.0000   -3.6073    0.0000 N   0  0  0  0  0  0  0  0  0  0  0  0
    1.2135   -2.7256    0.0000 N   0  0  0  0  0  0  0  0  0  0  0  0
    0.7500   -1.2990    0.0000 C   0  0  0  0  0  0  0  0  0  0  0  0
    1.5000    0.0000    0.0000 C   0  0  0  0  0  0  0  0  0  0  0  0
    0.7500    1.2990    0.0000 C   0  0  0  0  0  0  0  0  0  0  0  0
   -0.7500    1.2990    0.0000 C   0  0  0  0  0  0  0  0  0  0  0  0
   -1.5000    0.0000    0.0000 C   0  0  0  0  0  0  0  0  0  0  0  0
   -0.7500   -1.2990    0.0000 C   0  0  0  0  0  0  0  0  0  0  0  0
   -1.5000    2.5981    0.0000 C   0  0  0  0  0  0  0  0  0  0  0  0
   -2.9918    2.7549    0.0000 N   0  0  0  0  0  0  0  0  0  0  0  0
   -3.3037    4.2221    0.0000 N   0  0  0  0  0  0  0  0  0  0  0  0
   -2.0046    4.9721    0.0000 N   0  0  0  0  0  0  0  0  0  0  0  0
   -1.8478    6.4639    0.0000 C   0  0  0  0  0  0  0  0  0  0  0  0
   -3.0613    7.3456    0.0000 C   0  0  0  0  0  0  0  0  0  0  0  0
   -4.4317    6.7354    0.0000 C   0  0  0  0  0  0  0  0  0  0  0  0
   -5.6452    7.6171    0.0000 C   0  0  0  0  0  0  0  0  0  0  0  0
   -5.4884    9.1089    0.0000 C   0  0  0  0  0  0  0  0  0  0  0  0
   -4.1181    9.7190    0.0000 C   0  0  0  0  0  0  0  0  0  0  0  0
   -2.9046    8.8373    0.0000 C   0  0  0  0  0  0  0  0  0  0  0  0
   -0.8899    3.9684    0.0000 C   0  0  0  0  0  0  0  0  0  0  0  0
    0.5773    4.2803    0.0000 C   0  0  0  0  0  0  0  0  0  0  0  0
    1.5810    3.1655    0.0000 C   0  0  0  0  0  0  0  0  0  0  0  0
    3.0482    3.4774    0.0000 C   0  0  0  0  0  0  0  0  0  0  0  0
    3.5118    4.9040    0.0000 C   0  0  0  0  0  0  0  0  0  0  0  0
    2.5081    6.0187    0.0000 C   0  0  0  0  0  0  0  0  0  0  0  0
    1.0409    5.7068    0.0000 C   0  0  0  0  0  0  0  0  0  0  0  0
  1  2  1  0
  2  3  1  0
  3  4  1  0
  4  5  2  0
  4  6  1  0
  6  7  1  0
  7  8  2  0
  8  9  1  0
  9 10  1  0
 10 11  2  0
 11 12  1  0
 12 13  2  0
 13 14  1  0
 14 15  2  0
 13 16  1  0
 16 17  1  0
 17 18  2  0
 18 19  1  0
 19 20  1  0
 20 21  1  0
 21 22  2  0
 22 23  1  0
 23 24  2  0
 24 25  1  0
 25 26  2  0
 19 27  1  0
 27 28  1  0
 28 29  2  0
 29 30  1  0
 30 31  2  0
 31 32  1  0
 32 33  2  0
 15  7  1  0
 15 10  1  0
 27 16  2  0
 26 21  1  0
 33 28  1  0
M  END
>  <Molecule>  (143) 
CHEMBL2005936

>  <Standard Type>  (143) 
Ki

>  <Standard Relation>  (143) 
=

>  <Standard Value>  (143) 
794.33

>  <Standard Units>  (143) 
nM

>  <pChEMBL Value>  (143) 
6.1

>  <Comment>  (143) 
active

>  <Compound Key>  (143) 
SID103904513

>  <Assay>  (143) 
CHEMBL1963742

>  <Assay Description>  (143) 
PUBCHEM_BIOASSAY: Navigating the Kinome. (Class of assay: other) Panel member name: JAK3

>  <BAO Format>  (143) 
assay format

>  <Target>  (143) 
CHEMBL2148

>  <Target Pref. Name>  (143) 
Tyrosine-protein kinase JAK3

>  <Target Organism>  (143) 
Homo sapiens

>  <Target Type>  (143) 
SINGLE PROTEIN

>  <Document>  (143) 
CHEMBL1201862

>  <Source>  (143) 
PubChem BioAssays

>  <Max Phase>  (143) 
0

>  <#Ro5 Violations>  (143) 
1

>  <Molecular Weight>  (143) 
436.52

>  <Ligand Efficiency BEI>  (143) 
nan

>  <Ligand Efficiency LE>  (143) 
nan

>  <Ligand Efficiency LLE>  (143) 
nan

>  <Ligand Efficiency SEI>  (143) 
nan

>  <ALogP>  (143) 
5.28

>  <Assay Organism>  (143) 
nan

>  <Assay Tissue ChEMBL ID>  (143) 
nan

>  <Assay Tissue Name>  (143) 
nan

>  <Assay Cell Type>  (143) 
nan

>  <Assay Subcellular Fraction>  (143) 
nan

>  <Organism Tax ID>  (143) 
9606

>  <BAO Format ID>  (143) 
BAO_0000019

>  <Published Type>  (143) 
nan

>  <Published Relation>  (143) 
nan

>  <Published Value>  (143) 
nan

>  <Published Units>  (143) 
nan

>  <Canonical Smiles>  (143) 
CCCC(=O)Nc1n[nH]c2ccc(cc12)c3nnn(Cc4ccccc4)c3c5ccccc5

>  <Data Validity Comment>  (143) 
nan

>  <Document Journal>  (143) 
nan

>  <Document Year>  (143) 
nan

>  <SRC ID>  (143) 
7

>  <UO Units>  (143) 
UO_0000065

>  <Potential Duplicate>  (143) 
False

>  <Class>  (143) 
1

$$$$

     RDKit          2D

 23 26  0  0  0  0  0  0  0  0999 V2000
   -5.0487    4.2236    0.0000 N   0  0  0  0  0  0  0  0  0  0  0  0
   -5.3605    2.7564    0.0000 C   0  0  0  0  0  0  0  0  0  0  0  0
   -4.2458    1.7527    0.0000 C   0  0  0  0  0  0  0  0  0  0  0  0
   -4.5577    0.2855    0.0000 C   0  0  0  0  0  0  0  0  0  0  0  0
   -5.9843   -0.1781    0.0000 C   0  0  0  0  0  0  0  0  0  0  0  0
   -7.0990    0.8256    0.0000 C   0  0  0  0  0  0  0  0  0  0  0  0
   -6.7871    2.2929    0.0000 C   0  0  0  0  0  0  0  0  0  0  0  0
   -6.2961   -1.6453    0.0000 N   0  0  0  0  0  0  0  0  0  0  0  0
   -5.1814   -2.6490    0.0000 C   0  0  0  0  0  0  0  0  0  0  0  0
   -5.4933   -4.1162    0.0000 N   0  0  0  0  0  0  0  0  0  0  0  0
   -4.3786   -5.1199    0.0000 C   0  0  0  0  0  0  0  0  0  0  0  0
   -2.9520   -4.6564    0.0000 C   0  0  0  0  0  0  0  0  0  0  0  0
   -2.6401   -3.1891    0.0000 C   0  0  0  0  0  0  0  0  0  0  0  0
   -3.7548   -2.1855    0.0000 N   0  0  0  0  0  0  0  0  0  0  0  0
   -1.2135   -2.7256    0.0000 C   0  0  0  0  0  0  0  0  0  0  0  0
    0.0000   -3.6073    0.0000 C   0  0  0  0  0  0  0  0  0  0  0  0
    1.2135   -2.7256    0.0000 N   0  0  0  0  0  0  0  0  0  0  0  0
    0.7500   -1.2990    0.0000 C   0  0  0  0  0  0  0  0  0  0  0  0
    1.5000    0.0000    0.0000 N   0  0  0  0  0  0  0  0  0  0  0  0
    0.7500    1.2990    0.0000 C   0  0  0  0  0  0  0  0  0  0  0  0
   -0.7500    1.2990    0.0000 C   0  0  0  0  0  0  0  0  0  0  0  0
   -1.5000    0.0000    0.0000 C   0  0  0  0  0  0  0  0  0  0  0  0
   -0.7500   -1.2990    0.0000 C   0  0  0  0  0  0  0  0  0  0  0  0
  1  2  1  0
  2  3  1  0
  3  4  1  0
  4  5  1  0
  5  6  1  0
  6  7  1  0
  5  8  1  0
  8  9  1  0
  9 10  2  0
 10 11  1  0
 11 12  2  0
 12 13  1  0
 13 14  2  0
 13 15  1  0
 15 16  2  0
 16 17  1  0
 17 18  1  0
 18 19  2  0
 19 20  1  0
 20 21  2  0
 21 22  1  0
 22 23  2  0
  7  2  1  0
 14  9  1  0
 23 15  1  0
 23 18  1  0
M  END
>  <Molecule>  (144) 
CHEMBL1966628

>  <Standard Type>  (144) 
Ki

>  <Standard Relation>  (144) 
=

>  <Standard Value>  (144) 
398.11

>  <Standard Units>  (144) 
nM

>  <pChEMBL Value>  (144) 
6.4

>  <Comment>  (144) 
active

>  <Compound Key>  (144) 
SID103904203

>  <Assay>  (144) 
CHEMBL1963742

>  <Assay Description>  (144) 
PUBCHEM_BIOASSAY: Navigating the Kinome. (Class of assay: other) Panel member name: JAK3

>  <BAO Format>  (144) 
assay format

>  <Target>  (144) 
CHEMBL2148

>  <Target Pref. Name>  (144) 
Tyrosine-protein kinase JAK3

>  <Target Organism>  (144) 
Homo sapiens

>  <Target Type>  (144) 
SINGLE PROTEIN

>  <Document>  (144) 
CHEMBL1201862

>  <Source>  (144) 
PubChem BioAssays

>  <Max Phase>  (144) 
0

>  <#Ro5 Violations>  (144) 
0

>  <Molecular Weight>  (144) 
308.39

>  <Ligand Efficiency BEI>  (144) 
nan

>  <Ligand Efficiency LE>  (144) 
nan

>  <Ligand Efficiency LLE>  (144) 
nan

>  <Ligand Efficiency SEI>  (144) 
nan

>  <ALogP>  (144) 
2.7

>  <Assay Organism>  (144) 
nan

>  <Assay Tissue ChEMBL ID>  (144) 
nan

>  <Assay Tissue Name>  (144) 
nan

>  <Assay Cell Type>  (144) 
nan

>  <Assay Subcellular Fraction>  (144) 
nan

>  <Organism Tax ID>  (144) 
9606

>  <BAO Format ID>  (144) 
BAO_0000019

>  <Published Type>  (144) 
nan

>  <Published Relation>  (144) 
nan

>  <Published Value>  (144) 
nan

>  <Published Units>  (144) 
nan

>  <Canonical Smiles>  (144) 
NC1CCC(CC1)Nc2nccc(n2)c3c[nH]c4ncccc34

>  <Data Validity Comment>  (144) 
nan

>  <Document Journal>  (144) 
nan

>  <Document Year>  (144) 
nan

>  <SRC ID>  (144) 
7

>  <UO Units>  (144) 
UO_0000065

>  <Potential Duplicate>  (144) 
False

>  <Class>  (144) 
1

$$$$

     RDKit          2D

 39 42  0  0  0  0  0  0  0  0999 V2000
    5.3442  -10.1761    0.0000 C   0  0  0  0  0  0  0  0  0  0  0  0
    4.8807   -8.7495    0.0000 N   0  0  0  0  0  0  0  0  0  0  0  0
    5.8844   -7.6348    0.0000 C   0  0  0  0  0  0  0  0  0  0  0  0
    3.4134   -8.4377    0.0000 C   0  0  0  0  0  0  0  0  0  0  0  0
    2.9499   -7.0111    0.0000 C   0  0  0  0  0  0  0  0  0  0  0  0
    1.4827   -6.6992    0.0000 C   0  0  0  0  0  0  0  0  0  0  0  0
    1.0192   -5.2726    0.0000 N   0  0  0  0  0  0  0  0  0  0  0  0
    2.0229   -4.1579    0.0000 C   0  0  0  0  0  0  0  0  0  0  0  0
   -0.4481   -4.9608    0.0000 C   0  0  0  0  0  0  0  0  0  0  0  0
   -0.9116   -3.5342    0.0000 O   0  0  0  0  0  0  0  0  0  0  0  0
   -1.4518   -6.0755    0.0000 C   0  0  0  0  0  0  0  0  0  0  0  0
   -0.9882   -7.5021    0.0000 C   0  0  0  0  0  0  0  0  0  0  0  0
   -1.9919   -8.6168    0.0000 C   0  0  0  0  0  0  0  0  0  0  0  0
   -3.4591   -8.3049    0.0000 C   0  0  0  0  0  0  0  0  0  0  0  0
   -3.9227   -6.8783    0.0000 C   0  0  0  0  0  0  0  0  0  0  0  0
   -2.9190   -5.7636    0.0000 C   0  0  0  0  0  0  0  0  0  0  0  0
   -5.3899   -6.5665    0.0000 N   0  0  0  0  0  0  0  0  0  0  0  0
   -6.5046   -7.5702    0.0000 N   0  0  0  0  0  0  0  0  0  0  0  0
   -7.8037   -6.8202    0.0000 C   0  0  0  0  0  0  0  0  0  0  0  0
   -7.4918   -5.3529    0.0000 C   0  0  0  0  0  0  0  0  0  0  0  0
   -6.0000   -5.1962    0.0000 C   0  0  0  0  0  0  0  0  0  0  0  0
   -5.2500   -3.8971    0.0000 N   0  0  0  0  0  0  0  0  0  0  0  0
   -6.0000   -2.5981    0.0000 C   0  0  0  0  0  0  0  0  0  0  0  0
   -7.5000   -2.5981    0.0000 O   0  0  0  0  0  0  0  0  0  0  0  0
   -5.2500   -1.2990    0.0000 N   0  0  0  0  0  0  0  0  0  0  0  0
   -6.0000    0.0000    0.0000 C   0  0  0  0  0  0  0  0  0  0  0  0
   -7.5000    0.0000    0.0000 C   0  0  0  0  0  0  0  0  0  0  0  0
   -8.2500    1.2990    0.0000 C   0  0  0  0  0  0  0  0  0  0  0  0
   -7.5000    2.5981    0.0000 C   0  0  0  0  0  0  0  0  0  0  0  0
   -6.0000    2.5981    0.0000 C   0  0  0  0  0  0  0  0  0  0  0  0
   -5.2500    3.8971    0.0000 C   0  0  0  0  0  0  0  0  0  0  0  0
   -3.7500    3.8971    0.0000 C   0  0  0  0  0  0  0  0  0  0  0  0
   -3.0000    2.5981    0.0000 C   0  0  0  0  0  0  0  0  0  0  0  0
   -3.7500    1.2990    0.0000 C   0  0  0  0  0  0  0  0  0  0  0  0
   -5.2500    1.2990    0.0000 C   0  0  0  0  0  0  0  0  0  0  0  0
   -9.1740   -7.4303    0.0000 C   0  0  0  0  0  0  0  0  0  0  0  0
   -9.7841   -6.0600    0.0000 C   0  0  0  0  0  0  0  0  0  0  0  0
   -8.5639   -8.8006    0.0000 C   0  0  0  0  0  0  0  0  0  0  0  0
  -10.5443   -8.0404    0.0000 C   0  0  0  0  0  0  0  0  0  0  0  0
  1  2  1  0
  2  3  1  0
  2  4  1  0
  4  5  1  0
  5  6  1  0
  6  7  1  0
  7  8  1  0
  7  9  1  0
  9 10  2  0
  9 11  1  0
 11 12  2  0
 12 13  1  0
 13 14  2  0
 14 15  1  0
 15 16  2  0
 15 17  1  0
 17 18  1  0
 18 19  2  0
 19 20  1  0
 20 21  2  0
 21 22  1  0
 22 23  1  0
 23 24  2  0
 23 25  1  0
 25 26  1  0
 26 27  2  0
 27 28  1  0
 28 29  2  0
 29 30  1  0
 30 31  2  0
 31 32  1  0
 32 33  2  0
 33 34  1  0
 34 35  2  0
 19 36  1  0
 36 37  1  0
 36 38  1  0
 36 39  1  0
 16 11  1  0
 21 17  1  0
 35 26  1  0
 35 30  1  0
M  END
>  <Molecule>  (145) 
CHEMBL1964948

>  <Standard Type>  (145) 
Ki

>  <Standard Relation>  (145) 
>

>  <Standard Value>  (145) 
5011.87

>  <Standard Units>  (145) 
nM

>  <pChEMBL Value>  (145) 
nan

>  <Comment>  (145) 
inactive

>  <Compound Key>  (145) 
SID103904835

>  <Assay>  (145) 
CHEMBL1963742

>  <Assay Description>  (145) 
PUBCHEM_BIOASSAY: Navigating the Kinome. (Class of assay: other) Panel member name: JAK3

>  <BAO Format>  (145) 
assay format

>  <Target>  (145) 
CHEMBL2148

>  <Target Pref. Name>  (145) 
Tyrosine-protein kinase JAK3

>  <Target Organism>  (145) 
Homo sapiens

>  <Target Type>  (145) 
SINGLE PROTEIN

>  <Document>  (145) 
CHEMBL1201862

>  <Source>  (145) 
PubChem BioAssays

>  <Max Phase>  (145) 
0

>  <#Ro5 Violations>  (145) 
2

>  <Molecular Weight>  (145) 
526.69

>  <Ligand Efficiency BEI>  (145) 
nan

>  <Ligand Efficiency LE>  (145) 
nan

>  <Ligand Efficiency LLE>  (145) 
nan

>  <Ligand Efficiency SEI>  (145) 
nan

>  <ALogP>  (145) 
5.99

>  <Assay Organism>  (145) 
nan

>  <Assay Tissue ChEMBL ID>  (145) 
nan

>  <Assay Tissue Name>  (145) 
nan

>  <Assay Cell Type>  (145) 
nan

>  <Assay Subcellular Fraction>  (145) 
nan

>  <Organism Tax ID>  (145) 
9606

>  <BAO Format ID>  (145) 
BAO_0000019

>  <Published Type>  (145) 
nan

>  <Published Relation>  (145) 
nan

>  <Published Value>  (145) 
nan

>  <Published Units>  (145) 
nan

>  <Canonical Smiles>  (145) 
CN(C)CCCN(C)C(=O)c1cccc(c1)n2nc(cc2NC(=O)Nc3cccc4ccccc34)C(C)(C)C

>  <Data Validity Comment>  (145) 
nan

>  <Document Journal>  (145) 
nan

>  <Document Year>  (145) 
nan

>  <SRC ID>  (145) 
7

>  <UO Units>  (145) 
UO_0000065

>  <Potential Duplicate>  (145) 
False

>  <Class>  (145) 
0

$$$$

     RDKit          2D

 30 34  0  0  0  0  0  0  0  0999 V2000
   -3.1036   -1.7626    0.0000 C   0  0  0  0  0  0  0  0  0  0  0  0
   -2.6401   -3.1891    0.0000 C   0  0  0  0  0  0  0  0  0  0  0  0
   -2.1766   -4.6157    0.0000 C   0  0  0  0  0  0  0  0  0  0  0  0
   -4.0667   -3.6527    0.0000 C   0  0  0  0  0  0  0  0  0  0  0  0
   -4.3786   -5.1199    0.0000 O   0  0  0  0  0  0  0  0  0  0  0  0
   -1.2135   -2.7256    0.0000 C   0  0  0  0  0  0  0  0  0  0  0  0
   -0.0000   -3.6073    0.0000 N   0  0  0  0  0  0  0  0  0  0  0  0
    1.2135   -2.7256    0.0000 N   0  0  0  0  0  0  0  0  0  0  0  0
    0.7500   -1.2990    0.0000 C   0  0  0  0  0  0  0  0  0  0  0  0
    1.5000    0.0000    0.0000 C   0  0  0  0  0  0  0  0  0  0  0  0
    0.7500    1.2990    0.0000 C   0  0  0  0  0  0  0  0  0  0  0  0
   -0.7500    1.2990    0.0000 C   0  0  0  0  0  0  0  0  0  0  0  0
   -1.5000    0.0000    0.0000 N   0  0  0  0  0  0  0  0  0  0  0  0
   -0.7500   -1.2990    0.0000 N   0  0  0  0  0  0  0  0  0  0  0  0
   -1.5000    2.5981    0.0000 C   0  0  0  0  0  0  0  0  0  0  0  0
   -2.9918    2.7549    0.0000 C   0  0  0  0  0  0  0  0  0  0  0  0
   -3.3037    4.2221    0.0000 N   0  0  0  0  0  0  0  0  0  0  0  0
   -2.0046    4.9721    0.0000 C   0  0  0  0  0  0  0  0  0  0  0  0
   -1.3945    6.3424    0.0000 C   0  0  0  0  0  0  0  0  0  0  0  0
    0.0973    6.1856    0.0000 C   0  0  0  0  0  0  0  0  0  0  0  0
    0.4091    4.7184    0.0000 C   0  0  0  0  0  0  0  0  0  0  0  0
   -0.8899    3.9684    0.0000 N   0  0  0  0  0  0  0  0  0  0  0  0
   -3.9955    1.6402    0.0000 C   0  0  0  0  0  0  0  0  0  0  0  0
   -3.5320    0.2136    0.0000 C   0  0  0  0  0  0  0  0  0  0  0  0
   -4.5356   -0.9012    0.0000 C   0  0  0  0  0  0  0  0  0  0  0  0
   -6.0029   -0.5893    0.0000 C   0  0  0  0  0  0  0  0  0  0  0  0
   -7.0066   -1.7040    0.0000 F   0  0  0  0  0  0  0  0  0  0  0  0
   -6.4664    0.8373    0.0000 C   0  0  0  0  0  0  0  0  0  0  0  0
   -5.4627    1.9520    0.0000 C   0  0  0  0  0  0  0  0  0  0  0  0
   -5.9262    3.3786    0.0000 F   0  0  0  0  0  0  0  0  0  0  0  0
  1  2  1  0
  2  3  1  0
  2  4  1  0
  4  5  1  0
  2  6  1  0
  6  7  2  0
  7  8  1  0
  8  9  2  0
  9 10  1  0
 10 11  2  0
 11 12  1  0
 12 13  2  0
 13 14  1  0
 12 15  1  0
 15 16  2  0
 16 17  1  0
 17 18  2  0
 18 19  1  0
 19 20  1  0
 20 21  1  0
 21 22  1  0
 16 23  1  0
 23 24  2  0
 24 25  1  0
 25 26  2  0
 26 27  1  0
 26 28  1  0
 28 29  2  0
 29 30  1  0
 14  6  1  0
 14  9  1  0
 22 15  1  0
 22 18  1  0
 29 23  1  0
M  END
>  <Molecule>  (146) 
CHEMBL1996587

>  <Standard Type>  (146) 
Ki

>  <Standard Relation>  (146) 
>

>  <Standard Value>  (146) 
1584.89

>  <Standard Units>  (146) 
nM

>  <pChEMBL Value>  (146) 
nan

>  <Comment>  (146) 
inactive

>  <Compound Key>  (146) 
SID103905444

>  <Assay>  (146) 
CHEMBL1963742

>  <Assay Description>  (146) 
PUBCHEM_BIOASSAY: Navigating the Kinome. (Class of assay: other) Panel member name: JAK3

>  <BAO Format>  (146) 
assay format

>  <Target>  (146) 
CHEMBL2148

>  <Target Pref. Name>  (146) 
Tyrosine-protein kinase JAK3

>  <Target Organism>  (146) 
Homo sapiens

>  <Target Type>  (146) 
SINGLE PROTEIN

>  <Document>  (146) 
CHEMBL1201862

>  <Source>  (146) 
PubChem BioAssays

>  <Max Phase>  (146) 
0

>  <#Ro5 Violations>  (146) 
0

>  <Molecular Weight>  (146) 
410.43

>  <Ligand Efficiency BEI>  (146) 
nan

>  <Ligand Efficiency LE>  (146) 
nan

>  <Ligand Efficiency LLE>  (146) 
nan

>  <Ligand Efficiency SEI>  (146) 
nan

>  <ALogP>  (146) 
3.15

>  <Assay Organism>  (146) 
nan

>  <Assay Tissue ChEMBL ID>  (146) 
nan

>  <Assay Tissue Name>  (146) 
nan

>  <Assay Cell Type>  (146) 
nan

>  <Assay Subcellular Fraction>  (146) 
nan

>  <Organism Tax ID>  (146) 
9606

>  <BAO Format ID>  (146) 
BAO_0000019

>  <Published Type>  (146) 
nan

>  <Published Relation>  (146) 
nan

>  <Published Value>  (146) 
nan

>  <Published Units>  (146) 
nan

>  <Canonical Smiles>  (146) 
CC(C)(CO)c1nnc2ccc(nn12)c3c(nc4CCCn34)c5ccc(F)cc5F

>  <Data Validity Comment>  (146) 
nan

>  <Document Journal>  (146) 
nan

>  <Document Year>  (146) 
nan

>  <SRC ID>  (146) 
7

>  <UO Units>  (146) 
UO_0000065

>  <Potential Duplicate>  (146) 
False

>  <Class>  (146) 
0

$$$$

     RDKit          2D

 35 38  0  0  0  0  0  0  0  0999 V2000
   -7.8396   -9.2187    0.0000 C   0  0  0  0  0  0  0  0  0  0  0  0
   -6.3478   -9.0619    0.0000 C   0  0  0  0  0  0  0  0  0  0  0  0
   -4.8560   -8.9052    0.0000 C   0  0  0  0  0  0  0  0  0  0  0  0
   -6.1910  -10.5537    0.0000 C   0  0  0  0  0  0  0  0  0  0  0  0
   -6.5046   -7.5702    0.0000 C   0  0  0  0  0  0  0  0  0  0  0  0
   -5.3899   -6.5665    0.0000 C   0  0  0  0  0  0  0  0  0  0  0  0
   -6.0000   -5.1962    0.0000 C   0  0  0  0  0  0  0  0  0  0  0  0
   -5.2500   -3.8971    0.0000 N   0  0  0  0  0  0  0  0  0  0  0  0
   -3.7500   -3.8971    0.0000 C   0  0  0  0  0  0  0  0  0  0  0  0
   -3.0000   -5.1962    0.0000 O   0  0  0  0  0  0  0  0  0  0  0  0
   -3.0000   -2.5981    0.0000 C   0  0  0  0  0  0  0  0  0  0  0  0
   -3.7500   -1.2990    0.0000 O   0  0  0  0  0  0  0  0  0  0  0  0
   -1.5000   -2.5981    0.0000 C   0  0  0  0  0  0  0  0  0  0  0  0
   -0.7500   -3.8971    0.0000 C   0  0  0  0  0  0  0  0  0  0  0  0
    0.7500   -3.8971    0.0000 C   0  0  0  0  0  0  0  0  0  0  0  0
    1.5000   -2.5981    0.0000 C   0  0  0  0  0  0  0  0  0  0  0  0
    0.7500   -1.2990    0.0000 C   0  0  0  0  0  0  0  0  0  0  0  0
    1.5000    0.0000    0.0000 C   0  0  0  0  0  0  0  0  0  0  0  0
    0.7500    1.2990    0.0000 C   0  0  0  0  0  0  0  0  0  0  0  0
   -0.7500    1.2990    0.0000 C   0  0  0  0  0  0  0  0  0  0  0  0
   -1.5000    0.0000    0.0000 C   0  0  0  0  0  0  0  0  0  0  0  0
   -0.7500   -1.2990    0.0000 C   0  0  0  0  0  0  0  0  0  0  0  0
   -7.4918   -5.3529    0.0000 N   0  0  0  0  0  0  0  0  0  0  0  0
   -7.8037   -6.8202    0.0000 N   0  0  0  0  0  0  0  0  0  0  0  0
   -8.4955   -4.2382    0.0000 C   0  0  0  0  0  0  0  0  0  0  0  0
   -8.0320   -2.8116    0.0000 C   0  0  0  0  0  0  0  0  0  0  0  0
   -9.0356   -1.6969    0.0000 C   0  0  0  0  0  0  0  0  0  0  0  0
  -10.5029   -2.0088    0.0000 C   0  0  0  0  0  0  0  0  0  0  0  0
  -11.5066   -0.8941    0.0000 O   0  0  0  0  0  0  0  0  0  0  0  0
  -11.0430    0.5325    0.0000 C   0  0  0  0  0  0  0  0  0  0  0  0
  -12.0467    1.6472    0.0000 C   0  0  0  0  0  0  0  0  0  0  0  0
  -13.5140    1.3354    0.0000 O   0  0  0  0  0  0  0  0  0  0  0  0
  -11.5832    3.0738    0.0000 N   0  0  0  0  0  0  0  0  0  0  0  0
  -10.9664   -3.4354    0.0000 C   0  0  0  0  0  0  0  0  0  0  0  0
   -9.9627   -4.5501    0.0000 C   0  0  0  0  0  0  0  0  0  0  0  0
  1  2  1  0
  2  3  1  0
  2  4  1  0
  2  5  1  0
  5  6  1  0
  6  7  2  0
  7  8  1  0
  8  9  1  0
  9 10  2  0
  9 11  1  0
 11 12  2  0
 11 13  1  0
 13 14  2  0
 14 15  1  0
 15 16  2  0
 16 17  1  0
 17 18  2  0
 18 19  1  0
 19 20  2  0
 20 21  1  0
 21 22  2  0
  7 23  1  0
 23 24  1  0
 23 25  1  0
 25 26  2  0
 26 27  1  0
 27 28  2  0
 28 29  1  0
 29 30  1  0
 30 31  1  0
 31 32  2  0
 31 33  1  0
 28 34  1  0
 34 35  2  0
 24  5  2  0
 22 13  1  0
 22 17  1  0
 35 25  1  0
M  END
>  <Molecule>  (147) 
CHEMBL1977634

>  <Standard Type>  (147) 
Ki

>  <Standard Relation>  (147) 
>

>  <Standard Value>  (147) 
5011.87

>  <Standard Units>  (147) 
nM

>  <pChEMBL Value>  (147) 
nan

>  <Comment>  (147) 
inactive

>  <Compound Key>  (147) 
SID103904832

>  <Assay>  (147) 
CHEMBL1963742

>  <Assay Description>  (147) 
PUBCHEM_BIOASSAY: Navigating the Kinome. (Class of assay: other) Panel member name: JAK3

>  <BAO Format>  (147) 
assay format

>  <Target>  (147) 
CHEMBL2148

>  <Target Pref. Name>  (147) 
Tyrosine-protein kinase JAK3

>  <Target Organism>  (147) 
Homo sapiens

>  <Target Type>  (147) 
SINGLE PROTEIN

>  <Document>  (147) 
CHEMBL1201862

>  <Source>  (147) 
PubChem BioAssays

>  <Max Phase>  (147) 
0

>  <#Ro5 Violations>  (147) 
0

>  <Molecular Weight>  (147) 
470.53

>  <Ligand Efficiency BEI>  (147) 
nan

>  <Ligand Efficiency LE>  (147) 
nan

>  <Ligand Efficiency LLE>  (147) 
nan

>  <Ligand Efficiency SEI>  (147) 
nan

>  <ALogP>  (147) 
4.01

>  <Assay Organism>  (147) 
nan

>  <Assay Tissue ChEMBL ID>  (147) 
nan

>  <Assay Tissue Name>  (147) 
nan

>  <Assay Cell Type>  (147) 
nan

>  <Assay Subcellular Fraction>  (147) 
nan

>  <Organism Tax ID>  (147) 
9606

>  <BAO Format ID>  (147) 
BAO_0000019

>  <Published Type>  (147) 
nan

>  <Published Relation>  (147) 
nan

>  <Published Value>  (147) 
nan

>  <Published Units>  (147) 
nan

>  <Canonical Smiles>  (147) 
CC(C)(C)c1cc(NC(=O)C(=O)c2cccc3ccccc23)n(n1)c4ccc(OCC(=O)N)cc4

>  <Data Validity Comment>  (147) 
nan

>  <Document Journal>  (147) 
nan

>  <Document Year>  (147) 
nan

>  <SRC ID>  (147) 
7

>  <UO Units>  (147) 
UO_0000065

>  <Potential Duplicate>  (147) 
False

>  <Class>  (147) 
0

$$$$

     RDKit          2D

 25 28  0  0  0  0  0  0  0  0999 V2000
   -7.2317   -6.0469    0.0000 O   0  0  0  0  0  0  0  0  0  0  0  0
   -6.9199   -4.5797    0.0000 C   0  0  0  0  0  0  0  0  0  0  0  0
   -8.0346   -3.5760    0.0000 N   0  0  0  0  0  0  0  0  0  0  0  0
   -9.4612   -4.0396    0.0000 C   0  0  0  0  0  0  0  0  0  0  0  0
  -10.5759   -3.0359    0.0000 C   0  0  0  0  0  0  0  0  0  0  0  0
  -12.0025   -3.4994    0.0000 C   0  0  0  0  0  0  0  0  0  0  0  0
  -12.4660   -4.9260    0.0000 C   0  0  0  0  0  0  0  0  0  0  0  0
  -13.9660   -4.9260    0.0000 C   0  0  0  0  0  0  0  0  0  0  0  0
  -14.4295   -3.4994    0.0000 C   0  0  0  0  0  0  0  0  0  0  0  0
  -13.2160   -2.6177    0.0000 S   0  0  0  0  0  0  0  0  0  0  0  0
   -5.4933   -4.1162    0.0000 N   0  0  0  0  0  0  0  0  0  0  0  0
   -4.3786   -5.1199    0.0000 C   0  0  0  0  0  0  0  0  0  0  0  0
   -2.9520   -4.6564    0.0000 C   0  0  0  0  0  0  0  0  0  0  0  0
   -2.6401   -3.1891    0.0000 C   0  0  0  0  0  0  0  0  0  0  0  0
   -3.7548   -2.1855    0.0000 C   0  0  0  0  0  0  0  0  0  0  0  0
   -5.1814   -2.6490    0.0000 C   0  0  0  0  0  0  0  0  0  0  0  0
   -1.2135   -2.7256    0.0000 C   0  0  0  0  0  0  0  0  0  0  0  0
    0.0000   -3.6073    0.0000 C   0  0  0  0  0  0  0  0  0  0  0  0
    1.2135   -2.7256    0.0000 N   0  0  0  0  0  0  0  0  0  0  0  0
    0.7500   -1.2990    0.0000 C   0  0  0  0  0  0  0  0  0  0  0  0
    1.5000    0.0000    0.0000 N   0  0  0  0  0  0  0  0  0  0  0  0
    0.7500    1.2990    0.0000 C   0  0  0  0  0  0  0  0  0  0  0  0
   -0.7500    1.2990    0.0000 C   0  0  0  0  0  0  0  0  0  0  0  0
   -1.5000    0.0000    0.0000 C   0  0  0  0  0  0  0  0  0  0  0  0
   -0.7500   -1.2990    0.0000 C   0  0  0  0  0  0  0  0  0  0  0  0
  1  2  2  0
  2  3  1  0
  3  4  1  0
  4  5  1  0
  5  6  1  0
  6  7  2  0
  7  8  1  0
  8  9  2  0
  9 10  1  0
  2 11  1  0
 11 12  1  0
 12 13  1  0
 13 14  1  0
 14 15  2  0
 15 16  1  0
 14 17  1  0
 17 18  2  0
 18 19  1  0
 19 20  1  0
 20 21  2  0
 21 22  1  0
 22 23  2  0
 23 24  1  0
 24 25  2  0
 10  6  1  0
 16 11  1  0
 25 17  1  0
 25 20  1  0
M  END
>  <Molecule>  (148) 
CHEMBL1987535

>  <Standard Type>  (148) 
Ki

>  <Standard Relation>  (148) 
>

>  <Standard Value>  (148) 
5011.87

>  <Standard Units>  (148) 
nM

>  <pChEMBL Value>  (148) 
nan

>  <Comment>  (148) 
inactive

>  <Compound Key>  (148) 
SID103904682

>  <Assay>  (148) 
CHEMBL1963742

>  <Assay Description>  (148) 
PUBCHEM_BIOASSAY: Navigating the Kinome. (Class of assay: other) Panel member name: JAK3

>  <BAO Format>  (148) 
assay format

>  <Target>  (148) 
CHEMBL2148

>  <Target Pref. Name>  (148) 
Tyrosine-protein kinase JAK3

>  <Target Organism>  (148) 
Homo sapiens

>  <Target Type>  (148) 
SINGLE PROTEIN

>  <Document>  (148) 
CHEMBL1201862

>  <Source>  (148) 
PubChem BioAssays

>  <Max Phase>  (148) 
0

>  <#Ro5 Violations>  (148) 
0

>  <Molecular Weight>  (148) 
352.46

>  <Ligand Efficiency BEI>  (148) 
nan

>  <Ligand Efficiency LE>  (148) 
nan

>  <Ligand Efficiency LLE>  (148) 
nan

>  <Ligand Efficiency SEI>  (148) 
nan

>  <ALogP>  (148) 
3.67

>  <Assay Organism>  (148) 
nan

>  <Assay Tissue ChEMBL ID>  (148) 
nan

>  <Assay Tissue Name>  (148) 
nan

>  <Assay Cell Type>  (148) 
nan

>  <Assay Subcellular Fraction>  (148) 
nan

>  <Organism Tax ID>  (148) 
9606

>  <BAO Format ID>  (148) 
BAO_0000019

>  <Published Type>  (148) 
nan

>  <Published Relation>  (148) 
nan

>  <Published Value>  (148) 
nan

>  <Published Units>  (148) 
nan

>  <Canonical Smiles>  (148) 
O=C(NCCc1cccs1)N2CCC(=CC2)c3c[nH]c4ncccc34

>  <Data Validity Comment>  (148) 
nan

>  <Document Journal>  (148) 
nan

>  <Document Year>  (148) 
nan

>  <SRC ID>  (148) 
7

>  <UO Units>  (148) 
UO_0000065

>  <Potential Duplicate>  (148) 
False

>  <Class>  (148) 
0

$$$$

     RDKit          2D

 15 17  0  0  0  0  0  0  0  0999 V2000
   -6.1149    1.8303    0.0000 Cl  0  0  0  0  0  0  0  0  0  0  0  0
   -4.6883    2.2939    0.0000 C   0  0  0  0  0  0  0  0  0  0  0  0
   -4.3764    3.7611    0.0000 C   0  0  0  0  0  0  0  0  0  0  0  0
   -2.9499    4.2246    0.0000 C   0  0  0  0  0  0  0  0  0  0  0  0
   -1.8351    3.2209    0.0000 C   0  0  0  0  0  0  0  0  0  0  0  0
   -0.4086    3.6844    0.0000 N   0  0  0  0  0  0  0  0  0  0  0  0
    0.7062    2.6807    0.0000 C   0  0  0  0  0  0  0  0  0  0  0  0
    2.1328    3.1443    0.0000 O   0  0  0  0  0  0  0  0  0  0  0  0
    0.3943    1.2135    0.0000 N   0  0  0  0  0  0  0  0  0  0  0  0
    1.2760    0.0000    0.0000 N   0  0  0  0  0  0  0  0  0  0  0  0
    0.3943   -1.2135    0.0000 C   0  0  0  0  0  0  0  0  0  0  0  0
   -1.0323   -0.7500    0.0000 N   0  0  0  0  0  0  0  0  0  0  0  0
   -1.0323    0.7500    0.0000 C   0  0  0  0  0  0  0  0  0  0  0  0
   -2.1470    1.7537    0.0000 C   0  0  0  0  0  0  0  0  0  0  0  0
   -3.5736    1.2902    0.0000 C   0  0  0  0  0  0  0  0  0  0  0  0
  1  2  1  0
  2  3  2  0
  3  4  1  0
  4  5  2  0
  5  6  1  0
  6  7  1  0
  7  8  2  0
  7  9  1  0
  9 10  1  0
 10 11  2  0
 11 12  1  0
 12 13  2  0
 13 14  1  0
 14 15  2  0
 15  2  1  0
 14  5  1  0
 13  9  1  0
M  END
>  <Molecule>  (149) 
CHEMBL1992673

>  <Standard Type>  (149) 
Ki

>  <Standard Relation>  (149) 
=

>  <Standard Value>  (149) 
39810.72

>  <Standard Units>  (149) 
nM

>  <pChEMBL Value>  (149) 
4.4

>  <Comment>  (149) 
active

>  <Compound Key>  (149) 
SID103904976

>  <Assay>  (149) 
CHEMBL1963742

>  <Assay Description>  (149) 
PUBCHEM_BIOASSAY: Navigating the Kinome. (Class of assay: other) Panel member name: JAK3

>  <BAO Format>  (149) 
assay format

>  <Target>  (149) 
CHEMBL2148

>  <Target Pref. Name>  (149) 
Tyrosine-protein kinase JAK3

>  <Target Organism>  (149) 
Homo sapiens

>  <Target Type>  (149) 
SINGLE PROTEIN

>  <Document>  (149) 
CHEMBL1201862

>  <Source>  (149) 
PubChem BioAssays

>  <Max Phase>  (149) 
0

>  <#Ro5 Violations>  (149) 
0

>  <Molecular Weight>  (149) 
220.62

>  <Ligand Efficiency BEI>  (149) 
nan

>  <Ligand Efficiency LE>  (149) 
nan

>  <Ligand Efficiency LLE>  (149) 
nan

>  <Ligand Efficiency SEI>  (149) 
nan

>  <ALogP>  (149) 
1.22

>  <Assay Organism>  (149) 
nan

>  <Assay Tissue ChEMBL ID>  (149) 
nan

>  <Assay Tissue Name>  (149) 
nan

>  <Assay Cell Type>  (149) 
nan

>  <Assay Subcellular Fraction>  (149) 
nan

>  <Organism Tax ID>  (149) 
9606

>  <BAO Format ID>  (149) 
BAO_0000019

>  <Published Type>  (149) 
nan

>  <Published Relation>  (149) 
nan

>  <Published Value>  (149) 
nan

>  <Published Units>  (149) 
nan

>  <Canonical Smiles>  (149) 
Clc1ccc2NC(=O)n3ncnc3c2c1

>  <Data Validity Comment>  (149) 
nan

>  <Document Journal>  (149) 
nan

>  <Document Year>  (149) 
nan

>  <SRC ID>  (149) 
7

>  <UO Units>  (149) 
UO_0000065

>  <Potential Duplicate>  (149) 
False

>  <Class>  (149) 
1

$$$$

     RDKit          2D

 17 19  0  0  0  0  0  0  0  0999 V2000
   -4.6904   -6.5871    0.0000 N   0  0  0  0  0  0  0  0  0  0  0  0
   -4.3786   -5.1199    0.0000 C   0  0  0  0  0  0  0  0  0  0  0  0
   -5.4933   -4.1162    0.0000 N   0  0  0  0  0  0  0  0  0  0  0  0
   -5.1814   -2.6490    0.0000 C   0  0  0  0  0  0  0  0  0  0  0  0
   -6.2961   -1.6453    0.0000 Cl  0  0  0  0  0  0  0  0  0  0  0  0
   -3.7548   -2.1855    0.0000 C   0  0  0  0  0  0  0  0  0  0  0  0
   -2.6401   -3.1891    0.0000 C   0  0  0  0  0  0  0  0  0  0  0  0
   -2.9520   -4.6564    0.0000 N   0  0  0  0  0  0  0  0  0  0  0  0
   -1.2135   -2.7256    0.0000 C   0  0  0  0  0  0  0  0  0  0  0  0
    0.0000   -3.6073    0.0000 C   0  0  0  0  0  0  0  0  0  0  0  0
    1.2135   -2.7256    0.0000 N   0  0  0  0  0  0  0  0  0  0  0  0
    0.7500   -1.2990    0.0000 C   0  0  0  0  0  0  0  0  0  0  0  0
    1.5000    0.0000    0.0000 N   0  0  0  0  0  0  0  0  0  0  0  0
    0.7500    1.2990    0.0000 C   0  0  0  0  0  0  0  0  0  0  0  0
   -0.7500    1.2990    0.0000 C   0  0  0  0  0  0  0  0  0  0  0  0
   -1.5000    0.0000    0.0000 C   0  0  0  0  0  0  0  0  0  0  0  0
   -0.7500   -1.2990    0.0000 C   0  0  0  0  0  0  0  0  0  0  0  0
  1  2  1  0
  2  3  2  0
  3  4  1  0
  4  5  1  0
  4  6  2  0
  6  7  1  0
  7  8  2  0
  7  9  1  0
  9 10  2  0
 10 11  1  0
 11 12  1  0
 12 13  2  0
 13 14  1  0
 14 15  2  0
 15 16  1  0
 16 17  2  0
  8  2  1  0
 17  9  1  0
 17 12  1  0
M  END
>  <Molecule>  (150) 
CHEMBL2007574

>  <Standard Type>  (150) 
Ki

>  <Standard Relation>  (150) 
>

>  <Standard Value>  (150) 
5011.87

>  <Standard Units>  (150) 
nM

>  <pChEMBL Value>  (150) 
nan

>  <Comment>  (150) 
inactive

>  <Compound Key>  (150) 
SID103904208

>  <Assay>  (150) 
CHEMBL1963742

>  <Assay Description>  (150) 
PUBCHEM_BIOASSAY: Navigating the Kinome. (Class of assay: other) Panel member name: JAK3

>  <BAO Format>  (150) 
assay format

>  <Target>  (150) 
CHEMBL2148

>  <Target Pref. Name>  (150) 
Tyrosine-protein kinase JAK3

>  <Target Organism>  (150) 
Homo sapiens

>  <Target Type>  (150) 
SINGLE PROTEIN

>  <Document>  (150) 
CHEMBL1201862

>  <Source>  (150) 
PubChem BioAssays

>  <Max Phase>  (150) 
0

>  <#Ro5 Violations>  (150) 
0

>  <Molecular Weight>  (150) 
245.67

>  <Ligand Efficiency BEI>  (150) 
nan

>  <Ligand Efficiency LE>  (150) 
nan

>  <Ligand Efficiency LLE>  (150) 
nan

>  <Ligand Efficiency SEI>  (150) 
nan

>  <ALogP>  (150) 
2.26

>  <Assay Organism>  (150) 
nan

>  <Assay Tissue ChEMBL ID>  (150) 
nan

>  <Assay Tissue Name>  (150) 
nan

>  <Assay Cell Type>  (150) 
nan

>  <Assay Subcellular Fraction>  (150) 
nan

>  <Organism Tax ID>  (150) 
9606

>  <BAO Format ID>  (150) 
BAO_0000019

>  <Published Type>  (150) 
nan

>  <Published Relation>  (150) 
nan

>  <Published Value>  (150) 
nan

>  <Published Units>  (150) 
nan

>  <Canonical Smiles>  (150) 
Nc1nc(Cl)cc(n1)c2c[nH]c3ncccc23

>  <Data Validity Comment>  (150) 
nan

>  <Document Journal>  (150) 
nan

>  <Document Year>  (150) 
nan

>  <SRC ID>  (150) 
7

>  <UO Units>  (150) 
UO_0000065

>  <Potential Duplicate>  (150) 
False

>  <Class>  (150) 
0

$$$$

     RDKit          2D

 16 18  0  0  0  0  0  0  0  0999 V2000
    2.5242   -4.8694    0.0000 O   0  0  0  0  0  0  0  0  0  0  0  0
    1.3515   -3.9342    0.0000 C   0  0  0  0  0  0  0  0  0  0  0  0
    1.6852   -2.4718    0.0000 N   0  0  0  0  0  0  0  0  0  0  0  0
    0.7500   -1.2990    0.0000 C   0  0  0  0  0  0  0  0  0  0  0  0
    1.5000    0.0000    0.0000 C   0  0  0  0  0  0  0  0  0  0  0  0
    0.7500    1.2990    0.0000 C   0  0  0  0  0  0  0  0  0  0  0  0
   -0.7500    1.2990    0.0000 C   0  0  0  0  0  0  0  0  0  0  0  0
   -1.5000    0.0000    0.0000 C   0  0  0  0  0  0  0  0  0  0  0  0
   -0.7500   -1.2990    0.0000 C   0  0  0  0  0  0  0  0  0  0  0  0
   -1.6852   -2.4718    0.0000 N   0  0  0  0  0  0  0  0  0  0  0  0
   -1.3515   -3.9342    0.0000 C   0  0  0  0  0  0  0  0  0  0  0  0
   -2.5908   -4.7792    0.0000 C   0  0  0  0  0  0  0  0  0  0  0  0
   -2.4787   -6.2750    0.0000 C   0  0  0  0  0  0  0  0  0  0  0  0
   -1.1273   -6.9258    0.0000 C   0  0  0  0  0  0  0  0  0  0  0  0
    0.1121   -6.0808    0.0000 C   0  0  0  0  0  0  0  0  0  0  0  0
   -0.0000   -4.5850    0.0000 C   0  0  0  0  0  0  0  0  0  0  0  0
  1  2  2  0
  2  3  1  0
  3  4  1  0
  4  5  2  0
  5  6  1  0
  6  7  2  0
  7  8  1  0
  8  9  2  0
  9 10  1  0
 10 11  1  0
 11 12  2  0
 12 13  1  0
 13 14  2  0
 14 15  1  0
 15 16  2  0
 16  2  1  0
  9  4  1  0
 16 11  1  0
M  END
>  <Molecule>  (151) 
CHEMBL1727312

>  <Standard Type>  (151) 
Ki

>  <Standard Relation>  (151) 
>

>  <Standard Value>  (151) 
10000.0

>  <Standard Units>  (151) 
nM

>  <pChEMBL Value>  (151) 
nan

>  <Comment>  (151) 
inactive

>  <Compound Key>  (151) 
SID103904709

>  <Assay>  (151) 
CHEMBL1963742

>  <Assay Description>  (151) 
PUBCHEM_BIOASSAY: Navigating the Kinome. (Class of assay: other) Panel member name: JAK3

>  <BAO Format>  (151) 
assay format

>  <Target>  (151) 
CHEMBL2148

>  <Target Pref. Name>  (151) 
Tyrosine-protein kinase JAK3

>  <Target Organism>  (151) 
Homo sapiens

>  <Target Type>  (151) 
SINGLE PROTEIN

>  <Document>  (151) 
CHEMBL1201862

>  <Source>  (151) 
PubChem BioAssays

>  <Max Phase>  (151) 
0

>  <#Ro5 Violations>  (151) 
0

>  <Molecular Weight>  (151) 
210.24

>  <Ligand Efficiency BEI>  (151) 
nan

>  <Ligand Efficiency LE>  (151) 
nan

>  <Ligand Efficiency LLE>  (151) 
nan

>  <Ligand Efficiency SEI>  (151) 
nan

>  <ALogP>  (151) 
3.0

>  <Assay Organism>  (151) 
nan

>  <Assay Tissue ChEMBL ID>  (151) 
nan

>  <Assay Tissue Name>  (151) 
nan

>  <Assay Cell Type>  (151) 
nan

>  <Assay Subcellular Fraction>  (151) 
nan

>  <Organism Tax ID>  (151) 
9606

>  <BAO Format ID>  (151) 
BAO_0000019

>  <Published Type>  (151) 
nan

>  <Published Relation>  (151) 
nan

>  <Published Value>  (151) 
nan

>  <Published Units>  (151) 
nan

>  <Canonical Smiles>  (151) 
O=C1Nc2ccccc2Nc3ccccc13

>  <Data Validity Comment>  (151) 
nan

>  <Document Journal>  (151) 
nan

>  <Document Year>  (151) 
nan

>  <SRC ID>  (151) 
7

>  <UO Units>  (151) 
UO_0000065

>  <Potential Duplicate>  (151) 
False

>  <Class>  (151) 
0

$$$$

     RDKit          2D

 22 24  0  0  0  0  0  0  0  0999 V2000
   -1.3442   -0.7172    0.0000 C   0  0  0  0  0  0  0  0  0  0  0  0
   -2.7707   -1.1807    0.0000 C   0  0  0  0  0  0  0  0  0  0  0  0
   -3.0826   -2.6480    0.0000 C   0  0  0  0  0  0  0  0  0  0  0  0
   -4.5092   -3.1115    0.0000 C   0  0  0  0  0  0  0  0  0  0  0  0
   -5.6239   -2.1078    0.0000 N   0  0  0  0  0  0  0  0  0  0  0  0
   -5.3120   -0.6406    0.0000 C   0  0  0  0  0  0  0  0  0  0  0  0
   -3.8855   -0.1771    0.0000 C   0  0  0  0  0  0  0  0  0  0  0  0
   -3.5736    1.2902    0.0000 N   0  0  0  0  0  0  0  0  0  0  0  0
   -4.6883    2.2939    0.0000 C   0  0  0  0  0  0  0  0  0  0  0  0
   -2.1470    1.7537    0.0000 C   0  0  0  0  0  0  0  0  0  0  0  0
   -1.0323    0.7500    0.0000 N   0  0  0  0  0  0  0  0  0  0  0  0
    0.3943    1.2135    0.0000 C   0  0  0  0  0  0  0  0  0  0  0  0
    0.7062    2.6807    0.0000 N   0  0  0  0  0  0  0  0  0  0  0  0
   -0.4086    3.6844    0.0000 C   0  0  0  0  0  0  0  0  0  0  0  0
   -0.4086    5.1844    0.0000 N   0  0  0  0  0  0  0  0  0  0  0  0
   -1.8351    5.6480    0.0000 C   0  0  0  0  0  0  0  0  0  0  0  0
   -2.7168    4.4344    0.0000 C   0  0  0  0  0  0  0  0  0  0  0  0
   -1.8351    3.2209    0.0000 C   0  0  0  0  0  0  0  0  0  0  0  0
   -7.0505   -2.5713    0.0000 C   0  0  0  0  0  0  0  0  0  0  0  0
   -7.3624   -4.0385    0.0000 O   0  0  0  0  0  0  0  0  0  0  0  0
   -8.1652   -1.5676    0.0000 C   0  0  0  0  0  0  0  0  0  0  0  0
   -9.5918   -2.0312    0.0000 O   0  0  0  0  0  0  0  0  0  0  0  0
  1  2  1  0
  2  3  1  0
  3  4  1  0
  4  5  1  0
  5  6  1  0
  6  7  1  0
  7  8  1  0
  8  9  1  0
  8 10  1  0
 10 11  2  0
 11 12  1  0
 12 13  2  0
 13 14  1  0
 14 15  1  0
 15 16  1  0
 16 17  2  0
 17 18  1  0
  5 19  1  0
 19 20  2  0
 19 21  1  0
 21 22  1  0
  7  2  1  0
 18 10  1  0
 18 14  2  0
M  END
>  <Molecule>  (152) 
CHEMBL1969879

>  <Standard Type>  (152) 
Ki

>  <Standard Relation>  (152) 
=

>  <Standard Value>  (152) 
31.62

>  <Standard Units>  (152) 
nM

>  <pChEMBL Value>  (152) 
7.5

>  <Comment>  (152) 
active

>  <Compound Key>  (152) 
SID103905420

>  <Assay>  (152) 
CHEMBL1963742

>  <Assay Description>  (152) 
PUBCHEM_BIOASSAY: Navigating the Kinome. (Class of assay: other) Panel member name: JAK3

>  <BAO Format>  (152) 
assay format

>  <Target>  (152) 
CHEMBL2148

>  <Target Pref. Name>  (152) 
Tyrosine-protein kinase JAK3

>  <Target Organism>  (152) 
Homo sapiens

>  <Target Type>  (152) 
SINGLE PROTEIN

>  <Document>  (152) 
CHEMBL1201862

>  <Source>  (152) 
PubChem BioAssays

>  <Max Phase>  (152) 
0

>  <#Ro5 Violations>  (152) 
0

>  <Molecular Weight>  (152) 
303.37

>  <Ligand Efficiency BEI>  (152) 
nan

>  <Ligand Efficiency LE>  (152) 
nan

>  <Ligand Efficiency LLE>  (152) 
nan

>  <Ligand Efficiency SEI>  (152) 
nan

>  <ALogP>  (152) 
0.62

>  <Assay Organism>  (152) 
nan

>  <Assay Tissue ChEMBL ID>  (152) 
nan

>  <Assay Tissue Name>  (152) 
nan

>  <Assay Cell Type>  (152) 
nan

>  <Assay Subcellular Fraction>  (152) 
nan

>  <Organism Tax ID>  (152) 
9606

>  <BAO Format ID>  (152) 
BAO_0000019

>  <Published Type>  (152) 
nan

>  <Published Relation>  (152) 
nan

>  <Published Value>  (152) 
nan

>  <Published Units>  (152) 
nan

>  <Canonical Smiles>  (152) 
CC1CCN(CC1N(C)c2ncnc3[nH]ccc23)C(=O)CO

>  <Data Validity Comment>  (152) 
nan

>  <Document Journal>  (152) 
nan

>  <Document Year>  (152) 
nan

>  <SRC ID>  (152) 
7

>  <UO Units>  (152) 
UO_0000065

>  <Potential Duplicate>  (152) 
False

>  <Class>  (152) 
1

$$$$

     RDKit          2D

 33 36  0  0  0  0  0  0  0  0999 V2000
   -2.2892    3.4524    0.0000 N   0  0  0  0  0  0  0  0  0  0  0  0
   -0.8268    3.1186    0.0000 C   0  0  0  0  0  0  0  0  0  0  0  0
    0.1935    4.2182    0.0000 N   0  0  0  0  0  0  0  0  0  0  0  0
    1.6559    3.8844    0.0000 C   0  0  0  0  0  0  0  0  0  0  0  0
    2.0980    2.4510    0.0000 N   0  0  0  0  0  0  0  0  0  0  0  0
    1.0777    1.3515    0.0000 C   0  0  0  0  0  0  0  0  0  0  0  0
    1.7286    0.0000    0.0000 N   0  0  0  0  0  0  0  0  0  0  0  0
    1.0777   -1.3515    0.0000 C   0  0  0  0  0  0  0  0  0  0  0  0
   -0.3846   -1.6852    0.0000 C   0  0  0  0  0  0  0  0  0  0  0  0
   -1.5574   -0.7500    0.0000 C   0  0  0  0  0  0  0  0  0  0  0  0
   -1.5574    0.7500    0.0000 N   0  0  0  0  0  0  0  0  0  0  0  0
   -0.3846    1.6852    0.0000 C   0  0  0  0  0  0  0  0  0  0  0  0
   -2.9088   -1.4008    0.0000 C   0  0  0  0  0  0  0  0  0  0  0  0
   -4.1482   -0.5558    0.0000 C   0  0  0  0  0  0  0  0  0  0  0  0
   -5.4997   -1.2067    0.0000 C   0  0  0  0  0  0  0  0  0  0  0  0
   -5.6118   -2.7025    0.0000 C   0  0  0  0  0  0  0  0  0  0  0  0
   -6.9632   -3.3533    0.0000 N   0  0  0  0  0  0  0  0  0  0  0  0
   -8.2026   -2.5083    0.0000 C   0  0  0  0  0  0  0  0  0  0  0  0
   -8.0905   -1.0125    0.0000 O   0  0  0  0  0  0  0  0  0  0  0  0
   -9.5540   -3.1591    0.0000 N   0  0  0  0  0  0  0  0  0  0  0  0
  -10.7934   -2.3142    0.0000 C   0  0  0  0  0  0  0  0  0  0  0  0
  -10.6813   -0.8184    0.0000 C   0  0  0  0  0  0  0  0  0  0  0  0
  -11.9206    0.0266    0.0000 C   0  0  0  0  0  0  0  0  0  0  0  0
  -13.2721   -0.6242    0.0000 C   0  0  0  0  0  0  0  0  0  0  0  0
  -13.3842   -2.1200    0.0000 C   0  0  0  0  0  0  0  0  0  0  0  0
  -12.1448   -2.9650    0.0000 C   0  0  0  0  0  0  0  0  0  0  0  0
  -12.2569   -4.4608    0.0000 F   0  0  0  0  0  0  0  0  0  0  0  0
  -11.8085    1.5224    0.0000 C   0  0  0  0  0  0  0  0  0  0  0  0
  -11.6964    3.0182    0.0000 F   0  0  0  0  0  0  0  0  0  0  0  0
  -10.3127    1.4103    0.0000 F   0  0  0  0  0  0  0  0  0  0  0  0
  -13.3043    1.6345    0.0000 F   0  0  0  0  0  0  0  0  0  0  0  0
   -4.3724   -3.5475    0.0000 C   0  0  0  0  0  0  0  0  0  0  0  0
   -3.0209   -2.8966    0.0000 C   0  0  0  0  0  0  0  0  0  0  0  0
  1  2  1  0
  2  3  2  0
  3  4  1  0
  4  5  2  0
  5  6  1  0
  6  7  1  0
  7  8  1  0
  8  9  1  0
  9 10  1  0
 10 11  2  0
 11 12  1  0
 10 13  1  0
 13 14  2  0
 14 15  1  0
 15 16  2  0
 16 17  1  0
 17 18  1  0
 18 19  2  0
 18 20  1  0
 20 21  1  0
 21 22  2  0
 22 23  1  0
 23 24  2  0
 24 25  1  0
 25 26  2  0
 26 27  1  0
 23 28  1  0
 28 29  1  0
 28 30  1  0
 28 31  1  0
 16 32  1  0
 32 33  2  0
 12  2  1  0
 12  6  2  0
 33 13  1  0
 26 21  1  0
M  END
>  <Molecule>  (153) 
CHEMBL411903

>  <Standard Type>  (153) 
Ki

>  <Standard Relation>  (153) 
=

>  <Standard Value>  (153) 
794.33

>  <Standard Units>  (153) 
nM

>  <pChEMBL Value>  (153) 
6.1

>  <Comment>  (153) 
active

>  <Compound Key>  (153) 
SID103905219

>  <Assay>  (153) 
CHEMBL1963742

>  <Assay Description>  (153) 
PUBCHEM_BIOASSAY: Navigating the Kinome. (Class of assay: other) Panel member name: JAK3

>  <BAO Format>  (153) 
assay format

>  <Target>  (153) 
CHEMBL2148

>  <Target Pref. Name>  (153) 
Tyrosine-protein kinase JAK3

>  <Target Organism>  (153) 
Homo sapiens

>  <Target Type>  (153) 
SINGLE PROTEIN

>  <Document>  (153) 
CHEMBL1201862

>  <Source>  (153) 
PubChem BioAssays

>  <Max Phase>  (153) 
0

>  <#Ro5 Violations>  (153) 
0

>  <Molecular Weight>  (153) 
459.41

>  <Ligand Efficiency BEI>  (153) 
nan

>  <Ligand Efficiency LE>  (153) 
nan

>  <Ligand Efficiency LLE>  (153) 
nan

>  <Ligand Efficiency SEI>  (153) 
nan

>  <ALogP>  (153) 
4.8

>  <Assay Organism>  (153) 
nan

>  <Assay Tissue ChEMBL ID>  (153) 
nan

>  <Assay Tissue Name>  (153) 
nan

>  <Assay Cell Type>  (153) 
nan

>  <Assay Subcellular Fraction>  (153) 
nan

>  <Organism Tax ID>  (153) 
9606

>  <BAO Format ID>  (153) 
BAO_0000019

>  <Published Type>  (153) 
nan

>  <Published Relation>  (153) 
nan

>  <Published Value>  (153) 
nan

>  <Published Units>  (153) 
nan

>  <Canonical Smiles>  (153) 
Nc1ncnc2NCCC(=Nc12)c3ccc(NC(=O)Nc4cc(ccc4F)C(F)(F)F)cc3

>  <Data Validity Comment>  (153) 
nan

>  <Document Journal>  (153) 
nan

>  <Document Year>  (153) 
nan

>  <SRC ID>  (153) 
7

>  <UO Units>  (153) 
UO_0000065

>  <Potential Duplicate>  (153) 
False

>  <Class>  (153) 
1

$$$$

     RDKit          2D

 28 31  0  0  0  0  0  0  0  0999 V2000
   -7.5000   -2.5981    0.0000 C   0  0  0  0  0  0  0  0  0  0  0  0
   -6.0000   -2.5981    0.0000 N   0  0  0  0  0  0  0  0  0  0  0  0
   -5.2500   -1.2990    0.0000 C   0  0  0  0  0  0  0  0  0  0  0  0
   -3.7500   -1.2990    0.0000 C   0  0  0  0  0  0  0  0  0  0  0  0
   -3.0000   -2.5981    0.0000 C   0  0  0  0  0  0  0  0  0  0  0  0
   -3.7500   -3.8971    0.0000 C   0  0  0  0  0  0  0  0  0  0  0  0
   -3.0000   -5.1962    0.0000 O   0  0  0  0  0  0  0  0  0  0  0  0
   -5.2500   -3.8971    0.0000 C   0  0  0  0  0  0  0  0  0  0  0  0
   -1.5000   -2.5981    0.0000 C   0  0  0  0  0  0  0  0  0  0  0  0
   -0.7500   -3.8971    0.0000 C   0  0  0  0  0  0  0  0  0  0  0  0
   -1.5000   -5.1962    0.0000 O   0  0  0  0  0  0  0  0  0  0  0  0
    0.7500   -3.8971    0.0000 C   0  0  0  0  0  0  0  0  0  0  0  0
    1.5000   -2.5981    0.0000 C   0  0  0  0  0  0  0  0  0  0  0  0
    3.0000   -2.5981    0.0000 O   0  0  0  0  0  0  0  0  0  0  0  0
    0.7500   -1.2990    0.0000 C   0  0  0  0  0  0  0  0  0  0  0  0
    1.5000    0.0000    0.0000 C   0  0  0  0  0  0  0  0  0  0  0  0
    3.0000    0.0000    0.0000 O   0  0  0  0  0  0  0  0  0  0  0  0
    0.7500    1.2990    0.0000 C   0  0  0  0  0  0  0  0  0  0  0  0
   -0.7500    1.2990    0.0000 C   0  0  0  0  0  0  0  0  0  0  0  0
   -1.5000    0.0000    0.0000 O   0  0  0  0  0  0  0  0  0  0  0  0
   -0.7500   -1.2990    0.0000 C   0  0  0  0  0  0  0  0  0  0  0  0
   -1.5000    2.5981    0.0000 C   0  0  0  0  0  0  0  0  0  0  0  0
   -0.7500    3.8971    0.0000 C   0  0  0  0  0  0  0  0  0  0  0  0
   -1.5000    5.1962    0.0000 C   0  0  0  0  0  0  0  0  0  0  0  0
   -3.0000    5.1962    0.0000 C   0  0  0  0  0  0  0  0  0  0  0  0
   -3.7500    3.8971    0.0000 C   0  0  0  0  0  0  0  0  0  0  0  0
   -3.0000    2.5981    0.0000 C   0  0  0  0  0  0  0  0  0  0  0  0
   -3.7500    1.2990    0.0000 Cl  0  0  0  0  0  0  0  0  0  0  0  0
  1  2  1  0
  2  3  1  0
  3  4  1  0
  4  5  1  0
  5  6  1  0
  6  7  1  0
  6  8  1  0
  5  9  1  0
  9 10  2  0
 10 11  1  0
 10 12  1  0
 12 13  2  0
 13 14  1  0
 13 15  1  0
 15 16  1  0
 16 17  2  0
 16 18  1  0
 18 19  2  0
 19 20  1  0
 20 21  1  0
 19 22  1  0
 22 23  2  0
 23 24  1  0
 24 25  2  0
 25 26  1  0
 26 27  2  0
 27 28  1  0
  8  2  1  0
 21  9  1  0
 21 15  2  0
 27 22  1  0
M  END
>  <Molecule>  (154) 
CHEMBL422897

>  <Standard Type>  (154) 
Ki

>  <Standard Relation>  (154) 
>

>  <Standard Value>  (154) 
3981.07

>  <Standard Units>  (154) 
nM

>  <pChEMBL Value>  (154) 
nan

>  <Comment>  (154) 
inactive

>  <Compound Key>  (154) 
SID103905277

>  <Assay>  (154) 
CHEMBL1963742

>  <Assay Description>  (154) 
PUBCHEM_BIOASSAY: Navigating the Kinome. (Class of assay: other) Panel member name: JAK3

>  <BAO Format>  (154) 
assay format

>  <Target>  (154) 
CHEMBL2148

>  <Target Pref. Name>  (154) 
Tyrosine-protein kinase JAK3

>  <Target Organism>  (154) 
Homo sapiens

>  <Target Type>  (154) 
SINGLE PROTEIN

>  <Document>  (154) 
CHEMBL1201862

>  <Source>  (154) 
PubChem BioAssays

>  <Max Phase>  (154) 
0

>  <#Ro5 Violations>  (154) 
0

>  <Molecular Weight>  (154) 
401.85

>  <Ligand Efficiency BEI>  (154) 
nan

>  <Ligand Efficiency LE>  (154) 
nan

>  <Ligand Efficiency LLE>  (154) 
nan

>  <Ligand Efficiency SEI>  (154) 
nan

>  <ALogP>  (154) 
3.3

>  <Assay Organism>  (154) 
nan

>  <Assay Tissue ChEMBL ID>  (154) 
nan

>  <Assay Tissue Name>  (154) 
nan

>  <Assay Cell Type>  (154) 
nan

>  <Assay Subcellular Fraction>  (154) 
nan

>  <Organism Tax ID>  (154) 
9606

>  <BAO Format ID>  (154) 
BAO_0000019

>  <Published Type>  (154) 
nan

>  <Published Relation>  (154) 
nan

>  <Published Value>  (154) 
nan

>  <Published Units>  (154) 
nan

>  <Canonical Smiles>  (154) 
CN1CCC(C(O)C1)c2c(O)cc(O)c3C(=O)C=C(Oc23)c4ccccc4Cl

>  <Data Validity Comment>  (154) 
nan

>  <Document Journal>  (154) 
nan

>  <Document Year>  (154) 
nan

>  <SRC ID>  (154) 
7

>  <UO Units>  (154) 
UO_0000065

>  <Potential Duplicate>  (154) 
False

>  <Class>  (154) 
0

$$$$

     RDKit          2D

 29 32  0  0  0  0  0  0  0  0999 V2000
   -1.5718    8.0851    0.0000 C   0  0  0  0  0  0  0  0  0  0  0  0
   -1.8836    6.6179    0.0000 N   0  0  0  0  0  0  0  0  0  0  0  0
   -3.3102    6.1544    0.0000 C   0  0  0  0  0  0  0  0  0  0  0  0
   -3.6221    4.6871    0.0000 C   0  0  0  0  0  0  0  0  0  0  0  0
   -2.5074    3.6834    0.0000 O   0  0  0  0  0  0  0  0  0  0  0  0
   -5.0487    4.2236    0.0000 N   0  0  0  0  0  0  0  0  0  0  0  0
   -5.3605    2.7564    0.0000 C   0  0  0  0  0  0  0  0  0  0  0  0
   -4.2458    1.7527    0.0000 C   0  0  0  0  0  0  0  0  0  0  0  0
   -4.5577    0.2855    0.0000 C   0  0  0  0  0  0  0  0  0  0  0  0
   -5.9843   -0.1781    0.0000 C   0  0  0  0  0  0  0  0  0  0  0  0
   -7.0990    0.8256    0.0000 C   0  0  0  0  0  0  0  0  0  0  0  0
   -6.7871    2.2929    0.0000 C   0  0  0  0  0  0  0  0  0  0  0  0
   -6.2961   -1.6453    0.0000 N   0  0  0  0  0  0  0  0  0  0  0  0
   -5.1814   -2.6490    0.0000 C   0  0  0  0  0  0  0  0  0  0  0  0
   -5.4933   -4.1162    0.0000 N   0  0  0  0  0  0  0  0  0  0  0  0
   -4.3786   -5.1199    0.0000 C   0  0  0  0  0  0  0  0  0  0  0  0
   -4.6904   -6.5871    0.0000 Cl  0  0  0  0  0  0  0  0  0  0  0  0
   -2.9520   -4.6564    0.0000 C   0  0  0  0  0  0  0  0  0  0  0  0
   -2.6401   -3.1891    0.0000 C   0  0  0  0  0  0  0  0  0  0  0  0
   -3.7548   -2.1855    0.0000 N   0  0  0  0  0  0  0  0  0  0  0  0
   -1.2135   -2.7256    0.0000 C   0  0  0  0  0  0  0  0  0  0  0  0
    0.0000   -3.6073    0.0000 C   0  0  0  0  0  0  0  0  0  0  0  0
    1.2135   -2.7256    0.0000 N   0  0  0  0  0  0  0  0  0  0  0  0
    0.7500   -1.2990    0.0000 C   0  0  0  0  0  0  0  0  0  0  0  0
    1.5000    0.0000    0.0000 N   0  0  0  0  0  0  0  0  0  0  0  0
    0.7500    1.2990    0.0000 C   0  0  0  0  0  0  0  0  0  0  0  0
   -0.7500    1.2990    0.0000 C   0  0  0  0  0  0  0  0  0  0  0  0
   -1.5000    0.0000    0.0000 C   0  0  0  0  0  0  0  0  0  0  0  0
   -0.7500   -1.2990    0.0000 C   0  0  0  0  0  0  0  0  0  0  0  0
  1  2  1  0
  2  3  1  0
  3  4  1  0
  4  5  2  0
  4  6  1  0
  6  7  1  0
  7  8  1  0
  8  9  1  0
  9 10  1  0
 10 11  1  0
 11 12  1  0
 10 13  1  0
 13 14  1  0
 14 15  2  0
 15 16  1  0
 16 17  1  0
 16 18  2  0
 18 19  1  0
 19 20  2  0
 19 21  1  0
 21 22  2  0
 22 23  1  0
 23 24  1  0
 24 25  2  0
 25 26  1  0
 26 27  2  0
 27 28  1  0
 28 29  2  0
 12  7  1  0
 20 14  1  0
 29 21  1  0
 29 24  1  0
M  END
>  <Molecule>  (155) 
CHEMBL1996980

>  <Standard Type>  (155) 
Ki

>  <Standard Relation>  (155) 
=

>  <Standard Value>  (155) 
63.1

>  <Standard Units>  (155) 
nM

>  <pChEMBL Value>  (155) 
7.2

>  <Comment>  (155) 
active

>  <Compound Key>  (155) 
SID103904231

>  <Assay>  (155) 
CHEMBL1963742

>  <Assay Description>  (155) 
PUBCHEM_BIOASSAY: Navigating the Kinome. (Class of assay: other) Panel member name: JAK3

>  <BAO Format>  (155) 
assay format

>  <Target>  (155) 
CHEMBL2148

>  <Target Pref. Name>  (155) 
Tyrosine-protein kinase JAK3

>  <Target Organism>  (155) 
Homo sapiens

>  <Target Type>  (155) 
SINGLE PROTEIN

>  <Document>  (155) 
CHEMBL1201862

>  <Source>  (155) 
PubChem BioAssays

>  <Max Phase>  (155) 
0

>  <#Ro5 Violations>  (155) 
0

>  <Molecular Weight>  (155) 
413.91

>  <Ligand Efficiency BEI>  (155) 
nan

>  <Ligand Efficiency LE>  (155) 
nan

>  <Ligand Efficiency LLE>  (155) 
nan

>  <Ligand Efficiency SEI>  (155) 
nan

>  <ALogP>  (155) 
2.73

>  <Assay Organism>  (155) 
nan

>  <Assay Tissue ChEMBL ID>  (155) 
nan

>  <Assay Tissue Name>  (155) 
nan

>  <Assay Cell Type>  (155) 
nan

>  <Assay Subcellular Fraction>  (155) 
nan

>  <Organism Tax ID>  (155) 
9606

>  <BAO Format ID>  (155) 
BAO_0000019

>  <Published Type>  (155) 
nan

>  <Published Relation>  (155) 
nan

>  <Published Value>  (155) 
nan

>  <Published Units>  (155) 
nan

>  <Canonical Smiles>  (155) 
CNCC(=O)NC1CCC(CC1)Nc2nc(Cl)cc(n2)c3c[nH]c4ncccc34

>  <Data Validity Comment>  (155) 
nan

>  <Document Journal>  (155) 
nan

>  <Document Year>  (155) 
nan

>  <SRC ID>  (155) 
7

>  <UO Units>  (155) 
UO_0000065

>  <Potential Duplicate>  (155) 
False

>  <Class>  (155) 
1

$$$$

     RDKit          2D

 26 29  0  0  0  0  0  0  0  0999 V2000
    2.7760    0.0000    0.0000 N   0  0  0  0  0  0  0  0  0  0  0  0
    1.2760    0.0000    0.0000 C   0  0  0  0  0  0  0  0  0  0  0  0
    0.3943    1.2135    0.0000 N   0  0  0  0  0  0  0  0  0  0  0  0
   -1.0323    0.7500    0.0000 O   0  0  0  0  0  0  0  0  0  0  0  0
   -1.0323   -0.7500    0.0000 N   0  0  0  0  0  0  0  0  0  0  0  0
    0.3943   -1.2135    0.0000 C   0  0  0  0  0  0  0  0  0  0  0  0
    0.8578   -2.6401    0.0000 N   0  0  0  0  0  0  0  0  0  0  0  0
    2.2844   -3.1036    0.0000 N   0  0  0  0  0  0  0  0  0  0  0  0
    2.2844   -4.6036    0.0000 N   0  0  0  0  0  0  0  0  0  0  0  0
    0.8578   -5.0672    0.0000 C   0  0  0  0  0  0  0  0  0  0  0  0
    0.3943   -6.4937    0.0000 C   0  0  0  0  0  0  0  0  0  0  0  0
    1.3980   -7.6085    0.0000 O   0  0  0  0  0  0  0  0  0  0  0  0
   -1.0729   -6.8056    0.0000 N   0  0  0  0  0  0  0  0  0  0  0  0
   -1.5364   -8.2322    0.0000 N   0  0  0  0  0  0  0  0  0  0  0  0
   -3.0037   -8.5441    0.0000 C   0  0  0  0  0  0  0  0  0  0  0  0
   -3.4672   -9.9707    0.0000 C   0  0  0  0  0  0  0  0  0  0  0  0
   -2.5855  -11.1842    0.0000 C   0  0  0  0  0  0  0  0  0  0  0  0
   -3.4672  -12.3977    0.0000 C   0  0  0  0  0  0  0  0  0  0  0  0
   -4.8938  -11.9342    0.0000 C   0  0  0  0  0  0  0  0  0  0  0  0
   -4.8938  -10.4342    0.0000 S   0  0  0  0  0  0  0  0  0  0  0  0
   -0.0239   -3.8536    0.0000 C   0  0  0  0  0  0  0  0  0  0  0  0
   -1.5239   -3.8536    0.0000 C   0  0  0  0  0  0  0  0  0  0  0  0
   -2.4055   -5.0672    0.0000 C   0  0  0  0  0  0  0  0  0  0  0  0
   -3.8321   -4.6036    0.0000 C   0  0  0  0  0  0  0  0  0  0  0  0
   -3.8321   -3.1036    0.0000 C   0  0  0  0  0  0  0  0  0  0  0  0
   -2.4055   -2.6401    0.0000 S   0  0  0  0  0  0  0  0  0  0  0  0
  1  2  1  0
  2  3  2  0
  3  4  1  0
  4  5  1  0
  5  6  2  0
  6  7  1  0
  7  8  1  0
  8  9  2  0
  9 10  1  0
 10 11  1  0
 11 12  2  0
 11 13  1  0
 13 14  1  0
 14 15  2  3
 15 16  1  0
 16 17  2  0
 17 18  1  0
 18 19  2  0
 19 20  1  0
 10 21  2  0
 21 22  1  0
 22 23  2  0
 23 24  1  0
 24 25  2  0
 25 26  1  0
  6  2  1  0
 21  7  1  0
 20 16  1  0
 26 22  1  0
M  END
>  <Molecule>  (156) 
CHEMBL1975256

>  <Standard Type>  (156) 
Ki

>  <Standard Relation>  (156) 
>

>  <Standard Value>  (156) 
1584.89

>  <Standard Units>  (156) 
nM

>  <pChEMBL Value>  (156) 
nan

>  <Comment>  (156) 
inactive

>  <Compound Key>  (156) 
SID103905141

>  <Assay>  (156) 
CHEMBL1963742

>  <Assay Description>  (156) 
PUBCHEM_BIOASSAY: Navigating the Kinome. (Class of assay: other) Panel member name: JAK3

>  <BAO Format>  (156) 
assay format

>  <Target>  (156) 
CHEMBL2148

>  <Target Pref. Name>  (156) 
Tyrosine-protein kinase JAK3

>  <Target Organism>  (156) 
Homo sapiens

>  <Target Type>  (156) 
SINGLE PROTEIN

>  <Document>  (156) 
CHEMBL1201862

>  <Source>  (156) 
PubChem BioAssays

>  <Max Phase>  (156) 
0

>  <#Ro5 Violations>  (156) 
1

>  <Molecular Weight>  (156) 
386.42

>  <Ligand Efficiency BEI>  (156) 
nan

>  <Ligand Efficiency LE>  (156) 
nan

>  <Ligand Efficiency LLE>  (156) 
nan

>  <Ligand Efficiency SEI>  (156) 
nan

>  <ALogP>  (156) 
1.79

>  <Assay Organism>  (156) 
nan

>  <Assay Tissue ChEMBL ID>  (156) 
nan

>  <Assay Tissue Name>  (156) 
nan

>  <Assay Cell Type>  (156) 
nan

>  <Assay Subcellular Fraction>  (156) 
nan

>  <Organism Tax ID>  (156) 
9606

>  <BAO Format ID>  (156) 
BAO_0000019

>  <Published Type>  (156) 
nan

>  <Published Relation>  (156) 
nan

>  <Published Value>  (156) 
nan

>  <Published Units>  (156) 
nan

>  <Canonical Smiles>  (156) 
Nc1nonc1n2nnc(C(=O)NN=Cc3cccs3)c2c4cccs4

>  <Data Validity Comment>  (156) 
nan

>  <Document Journal>  (156) 
nan

>  <Document Year>  (156) 
nan

>  <SRC ID>  (156) 
7

>  <UO Units>  (156) 
UO_0000065

>  <Potential Duplicate>  (156) 
False

>  <Class>  (156) 
0

$$$$

     RDKit          2D

 21 23  0  0  0  0  0  0  0  0999 V2000
    2.2500   -9.0933    0.0000 C   0  0  0  0  0  0  0  0  0  0  0  0
    3.0000   -7.7942    0.0000 S   0  0  0  0  0  0  0  0  0  0  0  0
    1.7010   -7.0442    0.0000 O   0  0  0  0  0  0  0  0  0  0  0  0
    4.2990   -8.5442    0.0000 O   0  0  0  0  0  0  0  0  0  0  0  0
    3.7500   -6.4952    0.0000 N   0  0  0  0  0  0  0  0  0  0  0  0
    3.0000   -5.1962    0.0000 C   0  0  0  0  0  0  0  0  0  0  0  0
    1.5000   -5.1962    0.0000 C   0  0  0  0  0  0  0  0  0  0  0  0
    0.7500   -3.8971    0.0000 C   0  0  0  0  0  0  0  0  0  0  0  0
    1.5000   -2.5981    0.0000 C   0  0  0  0  0  0  0  0  0  0  0  0
    3.0000   -2.5981    0.0000 C   0  0  0  0  0  0  0  0  0  0  0  0
    3.7500   -3.8971    0.0000 C   0  0  0  0  0  0  0  0  0  0  0  0
    0.7500   -1.2990    0.0000 C   0  0  0  0  0  0  0  0  0  0  0  0
    1.5000    0.0000    0.0000 C   0  0  0  0  0  0  0  0  0  0  0  0
    0.7500    1.2990    0.0000 C   0  0  0  0  0  0  0  0  0  0  0  0
   -0.7500    1.2990    0.0000 C   0  0  0  0  0  0  0  0  0  0  0  0
   -1.7537    2.4138    0.0000 N   0  0  0  0  0  0  0  0  0  0  0  0
   -3.1240    1.8037    0.0000 N   0  0  0  0  0  0  0  0  0  0  0  0
   -2.9672    0.3119    0.0000 C   0  0  0  0  0  0  0  0  0  0  0  0
   -4.0819   -0.6918    0.0000 N   0  0  0  0  0  0  0  0  0  0  0  0
   -1.5000    0.0000    0.0000 C   0  0  0  0  0  0  0  0  0  0  0  0
   -0.7500   -1.2990    0.0000 C   0  0  0  0  0  0  0  0  0  0  0  0
  1  2  1  0
  2  3  2  0
  2  4  2  0
  2  5  1  0
  5  6  1  0
  6  7  2  0
  7  8  1  0
  8  9  2  0
  9 10  1  0
 10 11  2  0
  9 12  1  0
 12 13  2  0
 13 14  1  0
 14 15  2  0
 15 16  1  0
 16 17  1  0
 17 18  2  0
 18 19  1  0
 18 20  1  0
 20 21  2  0
 11  6  1  0
 21 12  1  0
 20 15  1  0
M  END
>  <Molecule>  (157) 
CHEMBL2004892

>  <Standard Type>  (157) 
Ki

>  <Standard Relation>  (157) 
=

>  <Standard Value>  (157) 
199.53

>  <Standard Units>  (157) 
nM

>  <pChEMBL Value>  (157) 
6.7

>  <Comment>  (157) 
active

>  <Compound Key>  (157) 
SID103904487

>  <Assay>  (157) 
CHEMBL1963742

>  <Assay Description>  (157) 
PUBCHEM_BIOASSAY: Navigating the Kinome. (Class of assay: other) Panel member name: JAK3

>  <BAO Format>  (157) 
assay format

>  <Target>  (157) 
CHEMBL2148

>  <Target Pref. Name>  (157) 
Tyrosine-protein kinase JAK3

>  <Target Organism>  (157) 
Homo sapiens

>  <Target Type>  (157) 
SINGLE PROTEIN

>  <Document>  (157) 
CHEMBL1201862

>  <Source>  (157) 
PubChem BioAssays

>  <Max Phase>  (157) 
0

>  <#Ro5 Violations>  (157) 
0

>  <Molecular Weight>  (157) 
302.36

>  <Ligand Efficiency BEI>  (157) 
nan

>  <Ligand Efficiency LE>  (157) 
nan

>  <Ligand Efficiency LLE>  (157) 
nan

>  <Ligand Efficiency SEI>  (157) 
nan

>  <ALogP>  (157) 
2.18

>  <Assay Organism>  (157) 
nan

>  <Assay Tissue ChEMBL ID>  (157) 
nan

>  <Assay Tissue Name>  (157) 
nan

>  <Assay Cell Type>  (157) 
nan

>  <Assay Subcellular Fraction>  (157) 
nan

>  <Organism Tax ID>  (157) 
9606

>  <BAO Format ID>  (157) 
BAO_0000019

>  <Published Type>  (157) 
nan

>  <Published Relation>  (157) 
nan

>  <Published Value>  (157) 
nan

>  <Published Units>  (157) 
nan

>  <Canonical Smiles>  (157) 
CS(=O)(=O)Nc1ccc(cc1)c2ccc3[nH]nc(N)c3c2

>  <Data Validity Comment>  (157) 
nan

>  <Document Journal>  (157) 
nan

>  <Document Year>  (157) 
nan

>  <SRC ID>  (157) 
7

>  <UO Units>  (157) 
UO_0000065

>  <Potential Duplicate>  (157) 
False

>  <Class>  (157) 
1

$$$$

     RDKit          2D

 26 28  0  0  0  0  0  0  0  0999 V2000
   -3.7500    1.2990    0.0000 F   0  0  0  0  0  0  0  0  0  0  0  0
   -3.0000    0.0000    0.0000 C   0  0  0  0  0  0  0  0  0  0  0  0
   -3.7500   -1.2990    0.0000 C   0  0  0  0  0  0  0  0  0  0  0  0
   -3.0000   -2.5981    0.0000 C   0  0  0  0  0  0  0  0  0  0  0  0
   -1.5000   -2.5981    0.0000 C   0  0  0  0  0  0  0  0  0  0  0  0
   -0.7500   -3.8971    0.0000 F   0  0  0  0  0  0  0  0  0  0  0  0
   -0.7500   -1.2990    0.0000 C   0  0  0  0  0  0  0  0  0  0  0  0
    0.7500   -1.2990    0.0000 C   0  0  0  0  0  0  0  0  0  0  0  0
    1.5000   -2.5981    0.0000 N   0  0  0  0  0  0  0  0  0  0  0  0
    3.0000   -2.5981    0.0000 C   0  0  0  0  0  0  0  0  0  0  0  0
    3.7500   -1.2990    0.0000 O   0  0  0  0  0  0  0  0  0  0  0  0
    3.7500   -3.8971    0.0000 N   0  0  0  0  0  0  0  0  0  0  0  0
    5.2500   -3.8971    0.0000 C   0  0  0  0  0  0  0  0  0  0  0  0
    6.0000   -5.1962    0.0000 C   0  0  0  0  0  0  0  0  0  0  0  0
    7.5000   -5.1962    0.0000 C   0  0  0  0  0  0  0  0  0  0  0  0
    8.2500   -3.8971    0.0000 C   0  0  0  0  0  0  0  0  0  0  0  0
    7.5000   -2.5981    0.0000 C   0  0  0  0  0  0  0  0  0  0  0  0
    6.0000   -2.5981    0.0000 N   0  0  0  0  0  0  0  0  0  0  0  0
    8.2500   -1.2990    0.0000 C   0  0  0  0  0  0  0  0  0  0  0  0
    9.0000    0.0000    0.0000 F   0  0  0  0  0  0  0  0  0  0  0  0
    9.5490   -2.0490    0.0000 F   0  0  0  0  0  0  0  0  0  0  0  0
    6.9510   -0.5490    0.0000 F   0  0  0  0  0  0  0  0  0  0  0  0
    1.5000    0.0000    0.0000 C   0  0  0  0  0  0  0  0  0  0  0  0
    0.7500    1.2990    0.0000 C   0  0  0  0  0  0  0  0  0  0  0  0
   -0.7500    1.2990    0.0000 N   0  0  0  0  0  0  0  0  0  0  0  0
   -1.5000    0.0000    0.0000 C   0  0  0  0  0  0  0  0  0  0  0  0
  1  2  1  0
  2  3  2  0
  3  4  1  0
  4  5  2  0
  5  6  1  0
  5  7  1  0
  7  8  2  0
  8  9  1  0
  9 10  1  0
 10 11  2  0
 10 12  1  0
 12 13  1  0
 13 14  2  0
 14 15  1  0
 15 16  2  0
 16 17  1  0
 17 18  2  0
 17 19  1  0
 19 20  1  0
 19 21  1  0
 19 22  1  0
  8 23  1  0
 23 24  2  0
 24 25  1  0
 25 26  2  0
 26  2  1  0
 26  7  1  0
 18 13  1  0
M  END
>  <Molecule>  (158) 
CHEMBL2001987

>  <Standard Type>  (158) 
Ki

>  <Standard Relation>  (158) 
>

>  <Standard Value>  (158) 
5011.87

>  <Standard Units>  (158) 
nM

>  <pChEMBL Value>  (158) 
nan

>  <Comment>  (158) 
inactive

>  <Compound Key>  (158) 
SID103904881

>  <Assay>  (158) 
CHEMBL1963742

>  <Assay Description>  (158) 
PUBCHEM_BIOASSAY: Navigating the Kinome. (Class of assay: other) Panel member name: JAK3

>  <BAO Format>  (158) 
assay format

>  <Target>  (158) 
CHEMBL2148

>  <Target Pref. Name>  (158) 
Tyrosine-protein kinase JAK3

>  <Target Organism>  (158) 
Homo sapiens

>  <Target Type>  (158) 
SINGLE PROTEIN

>  <Document>  (158) 
CHEMBL1201862

>  <Source>  (158) 
PubChem BioAssays

>  <Max Phase>  (158) 
0

>  <#Ro5 Violations>  (158) 
0

>  <Molecular Weight>  (158) 
368.27

>  <Ligand Efficiency BEI>  (158) 
nan

>  <Ligand Efficiency LE>  (158) 
nan

>  <Ligand Efficiency LLE>  (158) 
nan

>  <Ligand Efficiency SEI>  (158) 
nan

>  <ALogP>  (158) 
4.57

>  <Assay Organism>  (158) 
nan

>  <Assay Tissue ChEMBL ID>  (158) 
nan

>  <Assay Tissue Name>  (158) 
nan

>  <Assay Cell Type>  (158) 
nan

>  <Assay Subcellular Fraction>  (158) 
nan

>  <Organism Tax ID>  (158) 
9606

>  <BAO Format ID>  (158) 
BAO_0000019

>  <Published Type>  (158) 
nan

>  <Published Relation>  (158) 
nan

>  <Published Value>  (158) 
nan

>  <Published Units>  (158) 
nan

>  <Canonical Smiles>  (158) 
Fc1ccc(F)c2c(NC(=O)Nc3cccc(n3)C(F)(F)F)ccnc12

>  <Data Validity Comment>  (158) 
nan

>  <Document Journal>  (158) 
nan

>  <Document Year>  (158) 
nan

>  <SRC ID>  (158) 
7

>  <UO Units>  (158) 
UO_0000065

>  <Potential Duplicate>  (158) 
False

>  <Class>  (158) 
0

$$$$

     RDKit          2D

 27 29  0  0  0  0  0  0  0  0999 V2000
    5.2500   -1.2990    0.0000 C   0  0  0  0  0  0  0  0  0  0  0  0
    3.7500   -1.2990    0.0000 C   0  0  0  0  0  0  0  0  0  0  0  0
    3.0000    0.0000    0.0000 C   0  0  0  0  0  0  0  0  0  0  0  0
    1.5000    0.0000    0.0000 C   0  0  0  0  0  0  0  0  0  0  0  0
    0.7500   -1.2990    0.0000 C   0  0  0  0  0  0  0  0  0  0  0  0
   -0.7500   -1.2990    0.0000 C   0  0  0  0  0  0  0  0  0  0  0  0
   -1.5000    0.0000    0.0000 C   0  0  0  0  0  0  0  0  0  0  0  0
   -3.0000    0.0000    0.0000 N   0  0  0  0  0  0  0  0  0  0  0  0
   -3.7500    1.2990    0.0000 C   0  0  0  0  0  0  0  0  0  0  0  0
   -3.0000    2.5981    0.0000 C   0  0  0  0  0  0  0  0  0  0  0  0
   -1.5000    2.5981    0.0000 C   0  0  0  0  0  0  0  0  0  0  0  0
   -0.7500    3.8971    0.0000 N   0  0  0  0  0  0  0  0  0  0  0  0
   -1.5000    5.1962    0.0000 C   0  0  0  0  0  0  0  0  0  0  0  0
   -3.0000    5.1962    0.0000 O   0  0  0  0  0  0  0  0  0  0  0  0
   -0.7500    6.4952    0.0000 N   0  0  0  0  0  0  0  0  0  0  0  0
   -1.5000    7.7942    0.0000 C   0  0  0  0  0  0  0  0  0  0  0  0
   -0.7500    9.0933    0.0000 C   0  0  0  0  0  0  0  0  0  0  0  0
   -1.5000   10.3923    0.0000 C   0  0  0  0  0  0  0  0  0  0  0  0
   -3.0000   10.3923    0.0000 C   0  0  0  0  0  0  0  0  0  0  0  0
   -3.7500    9.0933    0.0000 C   0  0  0  0  0  0  0  0  0  0  0  0
   -3.0000    7.7942    0.0000 N   0  0  0  0  0  0  0  0  0  0  0  0
   -5.2500    9.0933    0.0000 C   0  0  0  0  0  0  0  0  0  0  0  0
   -6.7500    9.0933    0.0000 F   0  0  0  0  0  0  0  0  0  0  0  0
   -5.2500   10.5933    0.0000 F   0  0  0  0  0  0  0  0  0  0  0  0
   -5.2500    7.5933    0.0000 F   0  0  0  0  0  0  0  0  0  0  0  0
   -0.7500    1.2990    0.0000 C   0  0  0  0  0  0  0  0  0  0  0  0
    0.7500    1.2990    0.0000 C   0  0  0  0  0  0  0  0  0  0  0  0
  1  2  1  0
  2  3  1  0
  3  4  1  0
  4  5  2  0
  5  6  1  0
  6  7  2  0
  7  8  1  0
  8  9  2  0
  9 10  1  0
 10 11  2  0
 11 12  1  0
 12 13  1  0
 13 14  2  0
 13 15  1  0
 15 16  1  0
 16 17  2  0
 17 18  1  0
 18 19  2  0
 19 20  1  0
 20 21  2  0
 20 22  1  0
 22 23  1  0
 22 24  1  0
 22 25  1  0
 11 26  1  0
 26 27  2  0
 27  4  1  0
 26  7  1  0
 21 16  1  0
M  END
>  <Molecule>  (159) 
CHEMBL1987430

>  <Standard Type>  (159) 
Ki

>  <Standard Relation>  (159) 
>

>  <Standard Value>  (159) 
5011.87

>  <Standard Units>  (159) 
nM

>  <pChEMBL Value>  (159) 
nan

>  <Comment>  (159) 
inactive

>  <Compound Key>  (159) 
SID103904902

>  <Assay>  (159) 
CHEMBL1963742

>  <Assay Description>  (159) 
PUBCHEM_BIOASSAY: Navigating the Kinome. (Class of assay: other) Panel member name: JAK3

>  <BAO Format>  (159) 
assay format

>  <Target>  (159) 
CHEMBL2148

>  <Target Pref. Name>  (159) 
Tyrosine-protein kinase JAK3

>  <Target Organism>  (159) 
Homo sapiens

>  <Target Type>  (159) 
SINGLE PROTEIN

>  <Document>  (159) 
CHEMBL1201862

>  <Source>  (159) 
PubChem BioAssays

>  <Max Phase>  (159) 
0

>  <#Ro5 Violations>  (159) 
1

>  <Molecular Weight>  (159) 
374.37

>  <Ligand Efficiency BEI>  (159) 
nan

>  <Ligand Efficiency LE>  (159) 
nan

>  <Ligand Efficiency LLE>  (159) 
nan

>  <Ligand Efficiency SEI>  (159) 
nan

>  <ALogP>  (159) 
5.25

>  <Assay Organism>  (159) 
nan

>  <Assay Tissue ChEMBL ID>  (159) 
nan

>  <Assay Tissue Name>  (159) 
nan

>  <Assay Cell Type>  (159) 
nan

>  <Assay Subcellular Fraction>  (159) 
nan

>  <Organism Tax ID>  (159) 
9606

>  <BAO Format ID>  (159) 
BAO_0000019

>  <Published Type>  (159) 
nan

>  <Published Relation>  (159) 
nan

>  <Published Value>  (159) 
nan

>  <Published Units>  (159) 
nan

>  <Canonical Smiles>  (159) 
CCCc1ccc2nccc(NC(=O)Nc3cccc(n3)C(F)(F)F)c2c1

>  <Data Validity Comment>  (159) 
nan

>  <Document Journal>  (159) 
nan

>  <Document Year>  (159) 
nan

>  <SRC ID>  (159) 
7

>  <UO Units>  (159) 
UO_0000065

>  <Potential Duplicate>  (159) 
False

>  <Class>  (159) 
0

$$$$

     RDKit          2D

 26 28  0  0  0  0  0  0  0  0999 V2000
    3.7500   -1.2990    0.0000 C   0  0  0  0  0  0  0  0  0  0  0  0
    3.0000    0.0000    0.0000 O   0  0  0  0  0  0  0  0  0  0  0  0
    1.5000    0.0000    0.0000 C   0  0  0  0  0  0  0  0  0  0  0  0
    0.7500   -1.2990    0.0000 C   0  0  0  0  0  0  0  0  0  0  0  0
   -0.7500   -1.2990    0.0000 C   0  0  0  0  0  0  0  0  0  0  0  0
   -1.5000    0.0000    0.0000 C   0  0  0  0  0  0  0  0  0  0  0  0
   -0.7500    1.2990    0.0000 C   0  0  0  0  0  0  0  0  0  0  0  0
    0.7500    1.2990    0.0000 C   0  0  0  0  0  0  0  0  0  0  0  0
   -1.5000    2.5981    0.0000 C   0  0  0  0  0  0  0  0  0  0  0  0
   -0.7500    3.8971    0.0000 C   0  0  0  0  0  0  0  0  0  0  0  0
   -3.0000    2.5981    0.0000 N   0  0  0  0  0  0  0  0  0  0  0  0
   -3.7500    3.8971    0.0000 C   0  0  0  0  0  0  0  0  0  0  0  0
   -3.0000    5.1962    0.0000 O   0  0  0  0  0  0  0  0  0  0  0  0
   -5.2500    3.8971    0.0000 C   0  0  0  0  0  0  0  0  0  0  0  0
   -6.0000    5.1962    0.0000 C   0  0  0  0  0  0  0  0  0  0  0  0
   -7.5000    5.1962    0.0000 C   0  0  0  0  0  0  0  0  0  0  0  0
   -8.2500    3.8971    0.0000 C   0  0  0  0  0  0  0  0  0  0  0  0
   -7.5000    2.5981    0.0000 C   0  0  0  0  0  0  0  0  0  0  0  0
   -8.2500    1.2990    0.0000 F   0  0  0  0  0  0  0  0  0  0  0  0
   -6.0000    2.5981    0.0000 C   0  0  0  0  0  0  0  0  0  0  0  0
   -9.7500    3.8971    0.0000 C   0  0  0  0  0  0  0  0  0  0  0  0
  -10.5000    5.1962    0.0000 C   0  0  0  0  0  0  0  0  0  0  0  0
  -12.0000    5.1962    0.0000 C   0  0  0  0  0  0  0  0  0  0  0  0
  -12.7500    3.8971    0.0000 N   0  0  0  0  0  0  0  0  0  0  0  0
  -12.0000    2.5981    0.0000 C   0  0  0  0  0  0  0  0  0  0  0  0
  -10.5000    2.5981    0.0000 C   0  0  0  0  0  0  0  0  0  0  0  0
  1  2  1  0
  2  3  1  0
  3  4  2  0
  4  5  1  0
  5  6  2  0
  6  7  1  0
  7  8  2  0
  7  9  1  0
  9 10  1  0
  9 11  1  0
 11 12  1  0
 12 13  2  0
 12 14  1  0
 14 15  2  0
 15 16  1  0
 16 17  2  0
 17 18  1  0
 18 19  1  0
 18 20  2  0
 17 21  1  0
 21 22  2  0
 22 23  1  0
 23 24  2  0
 24 25  1  0
 25 26  2  0
  8  3  1  0
 20 14  1  0
 26 21  1  0
M  END
>  <Molecule>  (160) 
CHEMBL2004934

>  <Standard Type>  (160) 
Ki

>  <Standard Relation>  (160) 
>

>  <Standard Value>  (160) 
1584.89

>  <Standard Units>  (160) 
nM

>  <pChEMBL Value>  (160) 
nan

>  <Comment>  (160) 
inactive

>  <Compound Key>  (160) 
SID103904558

>  <Assay>  (160) 
CHEMBL1963742

>  <Assay Description>  (160) 
PUBCHEM_BIOASSAY: Navigating the Kinome. (Class of assay: other) Panel member name: JAK3

>  <BAO Format>  (160) 
assay format

>  <Target>  (160) 
CHEMBL2148

>  <Target Pref. Name>  (160) 
Tyrosine-protein kinase JAK3

>  <Target Organism>  (160) 
Homo sapiens

>  <Target Type>  (160) 
SINGLE PROTEIN

>  <Document>  (160) 
CHEMBL1201862

>  <Source>  (160) 
PubChem BioAssays

>  <Max Phase>  (160) 
0

>  <#Ro5 Violations>  (160) 
0

>  <Molecular Weight>  (160) 
350.39

>  <Ligand Efficiency BEI>  (160) 
nan

>  <Ligand Efficiency LE>  (160) 
nan

>  <Ligand Efficiency LLE>  (160) 
nan

>  <Ligand Efficiency SEI>  (160) 
nan

>  <ALogP>  (160) 
4.39

>  <Assay Organism>  (160) 
nan

>  <Assay Tissue ChEMBL ID>  (160) 
nan

>  <Assay Tissue Name>  (160) 
nan

>  <Assay Cell Type>  (160) 
nan

>  <Assay Subcellular Fraction>  (160) 
nan

>  <Organism Tax ID>  (160) 
9606

>  <BAO Format ID>  (160) 
BAO_0000019

>  <Published Type>  (160) 
nan

>  <Published Relation>  (160) 
nan

>  <Published Value>  (160) 
nan

>  <Published Units>  (160) 
nan

>  <Canonical Smiles>  (160) 
COc1cccc(c1)C(C)NC(=O)c2ccc(c(F)c2)c3ccncc3

>  <Data Validity Comment>  (160) 
nan

>  <Document Journal>  (160) 
nan

>  <Document Year>  (160) 
nan

>  <SRC ID>  (160) 
7

>  <UO Units>  (160) 
UO_0000065

>  <Potential Duplicate>  (160) 
False

>  <Class>  (160) 
0

$$$$

     RDKit          2D

 28 32  0  0  0  0  0  0  0  0999 V2000
   -2.8864    8.8834    0.0000 F   0  0  0  0  0  0  0  0  0  0  0  0
   -2.4229    7.4568    0.0000 C   0  0  0  0  0  0  0  0  0  0  0  0
   -0.9556    7.1449    0.0000 C   0  0  0  0  0  0  0  0  0  0  0  0
   -0.4921    5.7184    0.0000 C   0  0  0  0  0  0  0  0  0  0  0  0
   -1.4958    4.6036    0.0000 C   0  0  0  0  0  0  0  0  0  0  0  0
   -2.9630    4.9155    0.0000 C   0  0  0  0  0  0  0  0  0  0  0  0
   -3.4266    6.3421    0.0000 C   0  0  0  0  0  0  0  0  0  0  0  0
   -1.0323    3.1771    0.0000 C   0  0  0  0  0  0  0  0  0  0  0  0
    0.3943    2.7135    0.0000 N   0  0  0  0  0  0  0  0  0  0  0  0
    0.3943    1.2135    0.0000 C   0  0  0  0  0  0  0  0  0  0  0  0
    1.2760    0.0000    0.0000 O   0  0  0  0  0  0  0  0  0  0  0  0
    0.3943   -1.2135    0.0000 C   0  0  0  0  0  0  0  0  0  0  0  0
   -1.0323   -0.7500    0.0000 C   0  0  0  0  0  0  0  0  0  0  0  0
   -1.0323    0.7500    0.0000 N   0  0  0  0  0  0  0  0  0  0  0  0
   -1.9140    1.9635    0.0000 C   0  0  0  0  0  0  0  0  0  0  0  0
   -3.4140    1.9635    0.0000 C   0  0  0  0  0  0  0  0  0  0  0  0
   -4.1640    3.2626    0.0000 C   0  0  0  0  0  0  0  0  0  0  0  0
   -5.6640    3.2626    0.0000 C   0  0  0  0  0  0  0  0  0  0  0  0
   -6.4140    1.9635    0.0000 N   0  0  0  0  0  0  0  0  0  0  0  0
   -5.6640    0.6645    0.0000 C   0  0  0  0  0  0  0  0  0  0  0  0
   -6.4140   -0.6346    0.0000 N   0  0  0  0  0  0  0  0  0  0  0  0
   -7.9140   -0.6346    0.0000 C   0  0  0  0  0  0  0  0  0  0  0  0
   -8.6640    0.6645    0.0000 C   0  0  0  0  0  0  0  0  0  0  0  0
  -10.1640    0.6645    0.0000 C   0  0  0  0  0  0  0  0  0  0  0  0
  -10.9140   -0.6346    0.0000 N   0  0  0  0  0  0  0  0  0  0  0  0
  -10.1640   -1.9336    0.0000 C   0  0  0  0  0  0  0  0  0  0  0  0
   -8.6640   -1.9336    0.0000 C   0  0  0  0  0  0  0  0  0  0  0  0
   -4.1640    0.6645    0.0000 N   0  0  0  0  0  0  0  0  0  0  0  0
  1  2  1  0
  2  3  2  0
  3  4  1  0
  4  5  2  0
  5  6  1  0
  6  7  2  0
  5  8  1  0
  8  9  1  0
  9 10  2  0
 10 11  1  0
 11 12  1  0
 12 13  2  0
 13 14  1  0
 14 15  1  0
 15 16  1  0
 16 17  2  0
 17 18  1  0
 18 19  2  0
 19 20  1  0
 20 21  1  0
 21 22  1  0
 22 23  1  0
 23 24  1  0
 24 25  1  0
 25 26  1  0
 26 27  1  0
 20 28  2  0
  7  2  1  0
 15  8  2  0
 14 10  1  0
 28 16  1  0
 27 22  1  0
M  END
>  <Molecule>  (161) 
CHEMBL1971186

>  <Standard Type>  (161) 
Ki

>  <Standard Relation>  (161) 
>

>  <Standard Value>  (161) 
1584.89

>  <Standard Units>  (161) 
nM

>  <pChEMBL Value>  (161) 
nan

>  <Comment>  (161) 
inactive

>  <Compound Key>  (161) 
SID103904414

>  <Assay>  (161) 
CHEMBL1963742

>  <Assay Description>  (161) 
PUBCHEM_BIOASSAY: Navigating the Kinome. (Class of assay: other) Panel member name: JAK3

>  <BAO Format>  (161) 
assay format

>  <Target>  (161) 
CHEMBL2148

>  <Target Pref. Name>  (161) 
Tyrosine-protein kinase JAK3

>  <Target Organism>  (161) 
Homo sapiens

>  <Target Type>  (161) 
SINGLE PROTEIN

>  <Document>  (161) 
CHEMBL1201862

>  <Source>  (161) 
PubChem BioAssays

>  <Max Phase>  (161) 
0

>  <#Ro5 Violations>  (161) 
0

>  <Molecular Weight>  (161) 
378.41

>  <Ligand Efficiency BEI>  (161) 
nan

>  <Ligand Efficiency LE>  (161) 
nan

>  <Ligand Efficiency LLE>  (161) 
nan

>  <Ligand Efficiency SEI>  (161) 
nan

>  <ALogP>  (161) 
3.35

>  <Assay Organism>  (161) 
nan

>  <Assay Tissue ChEMBL ID>  (161) 
nan

>  <Assay Tissue Name>  (161) 
nan

>  <Assay Cell Type>  (161) 
nan

>  <Assay Subcellular Fraction>  (161) 
nan

>  <Organism Tax ID>  (161) 
9606

>  <BAO Format ID>  (161) 
BAO_0000019

>  <Published Type>  (161) 
nan

>  <Published Relation>  (161) 
nan

>  <Published Value>  (161) 
nan

>  <Published Units>  (161) 
nan

>  <Canonical Smiles>  (161) 
Fc1ccc(cc1)c2nc3occn3c2c4ccnc(NC5CCNCC5)n4

>  <Data Validity Comment>  (161) 
nan

>  <Document Journal>  (161) 
nan

>  <Document Year>  (161) 
nan

>  <SRC ID>  (161) 
7

>  <UO Units>  (161) 
UO_0000065

>  <Potential Duplicate>  (161) 
False

>  <Class>  (161) 
0

$$$$

     RDKit          2D

 30 33  0  0  0  0  0  0  0  0999 V2000
   -2.6401   -3.1891    0.0000 N   0  0  0  0  0  0  0  0  0  0  0  0
   -1.2135   -2.7256    0.0000 C   0  0  0  0  0  0  0  0  0  0  0  0
   -0.0000   -3.6073    0.0000 N   0  0  0  0  0  0  0  0  0  0  0  0
    1.2135   -2.7256    0.0000 N   0  0  0  0  0  0  0  0  0  0  0  0
    0.7500   -1.2990    0.0000 C   0  0  0  0  0  0  0  0  0  0  0  0
    1.5000    0.0000    0.0000 C   0  0  0  0  0  0  0  0  0  0  0  0
    0.7500    1.2990    0.0000 C   0  0  0  0  0  0  0  0  0  0  0  0
   -0.7500    1.2990    0.0000 C   0  0  0  0  0  0  0  0  0  0  0  0
   -1.5000    0.0000    0.0000 C   0  0  0  0  0  0  0  0  0  0  0  0
   -0.7500   -1.2990    0.0000 C   0  0  0  0  0  0  0  0  0  0  0  0
    1.5000    2.5981    0.0000 C   0  0  0  0  0  0  0  0  0  0  0  0
    3.0000    2.5981    0.0000 C   0  0  0  0  0  0  0  0  0  0  0  0
    3.7500    3.8971    0.0000 C   0  0  0  0  0  0  0  0  0  0  0  0
    3.0000    5.1962    0.0000 C   0  0  0  0  0  0  0  0  0  0  0  0
    3.7500    6.4952    0.0000 N   0  0  0  0  0  0  0  0  0  0  0  0
    5.2500    6.4952    0.0000 C   0  0  0  0  0  0  0  0  0  0  0  0
    6.0000    5.1962    0.0000 O   0  0  0  0  0  0  0  0  0  0  0  0
    6.0000    7.7942    0.0000 N   0  0  0  0  0  0  0  0  0  0  0  0
    7.5000    7.7942    0.0000 C   0  0  0  0  0  0  0  0  0  0  0  0
    8.2500    6.4952    0.0000 C   0  0  0  0  0  0  0  0  0  0  0  0
    9.7500    6.4952    0.0000 C   0  0  0  0  0  0  0  0  0  0  0  0
   10.5000    7.7942    0.0000 C   0  0  0  0  0  0  0  0  0  0  0  0
    9.7500    9.0933    0.0000 C   0  0  0  0  0  0  0  0  0  0  0  0
    8.2500    9.0933    0.0000 C   0  0  0  0  0  0  0  0  0  0  0  0
   10.5000   10.3923    0.0000 C   0  0  0  0  0  0  0  0  0  0  0  0
   11.2500   11.6913    0.0000 F   0  0  0  0  0  0  0  0  0  0  0  0
   11.7990    9.6423    0.0000 F   0  0  0  0  0  0  0  0  0  0  0  0
    9.2010   11.1423    0.0000 F   0  0  0  0  0  0  0  0  0  0  0  0
    1.5000    5.1962    0.0000 C   0  0  0  0  0  0  0  0  0  0  0  0
    0.7500    3.8971    0.0000 C   0  0  0  0  0  0  0  0  0  0  0  0
  1  2  1  0
  2  3  2  0
  3  4  1  0
  4  5  1  0
  5  6  2  0
  6  7  1  0
  7  8  2  0
  8  9  1  0
  9 10  2  0
  7 11  1  0
 11 12  2  0
 12 13  1  0
 13 14  2  0
 14 15  1  0
 15 16  1  0
 16 17  2  0
 16 18  1  0
 18 19  1  0
 19 20  2  0
 20 21  1  0
 21 22  2  0
 22 23  1  0
 23 24  2  0
 23 25  1  0
 25 26  1  0
 25 27  1  0
 25 28  1  0
 14 29  1  0
 29 30  2  0
 10  2  1  0
 10  5  1  0
 30 11  1  0
 24 19  1  0
M  END
>  <Molecule>  (162) 
CHEMBL1997623

>  <Standard Type>  (162) 
Ki

>  <Standard Relation>  (162) 
=

>  <Standard Value>  (162) 
630.96

>  <Standard Units>  (162) 
nM

>  <pChEMBL Value>  (162) 
6.2

>  <Comment>  (162) 
active

>  <Compound Key>  (162) 
SID103904367

>  <Assay>  (162) 
CHEMBL1963742

>  <Assay Description>  (162) 
PUBCHEM_BIOASSAY: Navigating the Kinome. (Class of assay: other) Panel member name: JAK3

>  <BAO Format>  (162) 
assay format

>  <Target>  (162) 
CHEMBL2148

>  <Target Pref. Name>  (162) 
Tyrosine-protein kinase JAK3

>  <Target Organism>  (162) 
Homo sapiens

>  <Target Type>  (162) 
SINGLE PROTEIN

>  <Document>  (162) 
CHEMBL1201862

>  <Source>  (162) 
PubChem BioAssays

>  <Max Phase>  (162) 
0

>  <#Ro5 Violations>  (162) 
1

>  <Molecular Weight>  (162) 
411.39

>  <Ligand Efficiency BEI>  (162) 
nan

>  <Ligand Efficiency LE>  (162) 
nan

>  <Ligand Efficiency LLE>  (162) 
nan

>  <Ligand Efficiency SEI>  (162) 
nan

>  <ALogP>  (162) 
5.47

>  <Assay Organism>  (162) 
nan

>  <Assay Tissue ChEMBL ID>  (162) 
nan

>  <Assay Tissue Name>  (162) 
nan

>  <Assay Cell Type>  (162) 
nan

>  <Assay Subcellular Fraction>  (162) 
nan

>  <Organism Tax ID>  (162) 
9606

>  <BAO Format ID>  (162) 
BAO_0000019

>  <Published Type>  (162) 
nan

>  <Published Relation>  (162) 
nan

>  <Published Value>  (162) 
nan

>  <Published Units>  (162) 
nan

>  <Canonical Smiles>  (162) 
Nc1n[nH]c2cc(ccc12)c3ccc(NC(=O)Nc4cccc(c4)C(F)(F)F)cc3

>  <Data Validity Comment>  (162) 
nan

>  <Document Journal>  (162) 
nan

>  <Document Year>  (162) 
nan

>  <SRC ID>  (162) 
7

>  <UO Units>  (162) 
UO_0000065

>  <Potential Duplicate>  (162) 
False

>  <Class>  (162) 
1

$$$$

     RDKit          2D

 18 20  0  0  0  0  0  0  0  0999 V2000
    6.0000   -0.0000    0.0000 O   0  0  0  0  0  0  0  0  0  0  0  0
    5.2500   -1.2990    0.0000 C   0  0  0  0  0  0  0  0  0  0  0  0
    6.0000   -2.5981    0.0000 C   0  0  0  0  0  0  0  0  0  0  0  0
    5.2500   -3.8971    0.0000 C   0  0  0  0  0  0  0  0  0  0  0  0
    3.7500   -3.8971    0.0000 C   0  0  0  0  0  0  0  0  0  0  0  0
    3.0000   -2.5981    0.0000 C   0  0  0  0  0  0  0  0  0  0  0  0
    1.5000   -2.5981    0.0000 N   0  0  0  0  0  0  0  0  0  0  0  0
    0.7500   -1.2990    0.0000 C   0  0  0  0  0  0  0  0  0  0  0  0
    1.5000    0.0000    0.0000 N   0  0  0  0  0  0  0  0  0  0  0  0
    0.7500    1.2990    0.0000 C   0  0  0  0  0  0  0  0  0  0  0  0
   -0.7500    1.2990    0.0000 N   0  0  0  0  0  0  0  0  0  0  0  0
   -1.5000    0.0000    0.0000 C   0  0  0  0  0  0  0  0  0  0  0  0
   -2.9672   -0.3119    0.0000 S   0  0  0  0  0  0  0  0  0  0  0  0
   -3.1240   -1.8037    0.0000 C   0  0  0  0  0  0  0  0  0  0  0  0
   -1.7537   -2.4138    0.0000 C   0  0  0  0  0  0  0  0  0  0  0  0
   -1.4418   -3.8810    0.0000 Cl  0  0  0  0  0  0  0  0  0  0  0  0
   -0.7500   -1.2990    0.0000 C   0  0  0  0  0  0  0  0  0  0  0  0
    3.7500   -1.2990    0.0000 C   0  0  0  0  0  0  0  0  0  0  0  0
  1  2  1  0
  2  3  2  0
  3  4  1  0
  4  5  2  0
  5  6  1  0
  6  7  1  0
  7  8  1  0
  8  9  2  0
  9 10  1  0
 10 11  2  0
 11 12  1  0
 12 13  1  0
 13 14  1  0
 14 15  2  0
 15 16  1  0
 15 17  1  0
  6 18  2  0
 18  2  1  0
 17  8  1  0
 17 12  2  0
M  END
>  <Molecule>  (163) 
CHEMBL1982992

>  <Standard Type>  (163) 
Ki

>  <Standard Relation>  (163) 
>

>  <Standard Value>  (163) 
1584.89

>  <Standard Units>  (163) 
nM

>  <pChEMBL Value>  (163) 
nan

>  <Comment>  (163) 
inactive

>  <Compound Key>  (163) 
SID103905084

>  <Assay>  (163) 
CHEMBL1963742

>  <Assay Description>  (163) 
PUBCHEM_BIOASSAY: Navigating the Kinome. (Class of assay: other) Panel member name: JAK3

>  <BAO Format>  (163) 
assay format

>  <Target>  (163) 
CHEMBL2148

>  <Target Pref. Name>  (163) 
Tyrosine-protein kinase JAK3

>  <Target Organism>  (163) 
Homo sapiens

>  <Target Type>  (163) 
SINGLE PROTEIN

>  <Document>  (163) 
CHEMBL1201862

>  <Source>  (163) 
PubChem BioAssays

>  <Max Phase>  (163) 
0

>  <#Ro5 Violations>  (163) 
0

>  <Molecular Weight>  (163) 
277.74

>  <Ligand Efficiency BEI>  (163) 
nan

>  <Ligand Efficiency LE>  (163) 
nan

>  <Ligand Efficiency LLE>  (163) 
nan

>  <Ligand Efficiency SEI>  (163) 
nan

>  <ALogP>  (163) 
3.79

>  <Assay Organism>  (163) 
nan

>  <Assay Tissue ChEMBL ID>  (163) 
nan

>  <Assay Tissue Name>  (163) 
nan

>  <Assay Cell Type>  (163) 
nan

>  <Assay Subcellular Fraction>  (163) 
nan

>  <Organism Tax ID>  (163) 
9606

>  <BAO Format ID>  (163) 
BAO_0000019

>  <Published Type>  (163) 
nan

>  <Published Relation>  (163) 
nan

>  <Published Value>  (163) 
nan

>  <Published Units>  (163) 
nan

>  <Canonical Smiles>  (163) 
Oc1cccc(Nc2ncnc3scc(Cl)c23)c1

>  <Data Validity Comment>  (163) 
nan

>  <Document Journal>  (163) 
nan

>  <Document Year>  (163) 
nan

>  <SRC ID>  (163) 
7

>  <UO Units>  (163) 
UO_0000065

>  <Potential Duplicate>  (163) 
False

>  <Class>  (163) 
0

$$$$

     RDKit          2D

 24 26  0  0  0  0  0  0  0  0999 V2000
    1.2990   -5.8573    0.0000 N   0  0  0  0  0  0  0  0  0  0  0  0
   -0.0000   -5.1073    0.0000 C   0  0  0  0  0  0  0  0  0  0  0  0
   -1.2990   -5.8573    0.0000 O   0  0  0  0  0  0  0  0  0  0  0  0
   -0.0000   -3.6073    0.0000 C   0  0  0  0  0  0  0  0  0  0  0  0
    1.2135   -2.7256    0.0000 S   0  0  0  0  0  0  0  0  0  0  0  0
    0.7500   -1.2990    0.0000 C   0  0  0  0  0  0  0  0  0  0  0  0
    1.5000    0.0000    0.0000 C   0  0  0  0  0  0  0  0  0  0  0  0
    0.7500    1.2990    0.0000 C   0  0  0  0  0  0  0  0  0  0  0  0
   -0.7500    1.2990    0.0000 C   0  0  0  0  0  0  0  0  0  0  0  0
   -1.5000    2.5981    0.0000 Cl  0  0  0  0  0  0  0  0  0  0  0  0
   -1.5000    0.0000    0.0000 C   0  0  0  0  0  0  0  0  0  0  0  0
   -2.9888    0.1828    0.0000 Cl  0  0  0  0  0  0  0  0  0  0  0  0
   -0.7500   -1.2990    0.0000 C   0  0  0  0  0  0  0  0  0  0  0  0
   -1.2135   -2.7256    0.0000 C   0  0  0  0  0  0  0  0  0  0  0  0
   -2.6401   -3.1891    0.0000 N   0  0  0  0  0  0  0  0  0  0  0  0
   -3.7548   -2.1855    0.0000 C   0  0  0  0  0  0  0  0  0  0  0  0
   -3.6241   -0.6912    0.0000 O   0  0  0  0  0  0  0  0  0  0  0  0
   -5.1814   -2.6490    0.0000 C   0  0  0  0  0  0  0  0  0  0  0  0
   -5.4933   -4.1162    0.0000 C   0  0  0  0  0  0  0  0  0  0  0  0
   -6.9199   -4.5797    0.0000 C   0  0  0  0  0  0  0  0  0  0  0  0
   -8.0346   -3.5760    0.0000 C   0  0  0  0  0  0  0  0  0  0  0  0
   -9.4612   -4.0396    0.0000 Cl  0  0  0  0  0  0  0  0  0  0  0  0
   -7.7227   -2.1088    0.0000 C   0  0  0  0  0  0  0  0  0  0  0  0
   -6.2961   -1.6453    0.0000 C   0  0  0  0  0  0  0  0  0  0  0  0
  1  2  1  0
  2  3  2  0
  2  4  1  0
  4  5  1  0
  5  6  1  0
  6  7  2  0
  7  8  1  0
  8  9  2  0
  9 10  1  0
  9 11  1  0
 11 12  1  0
 11 13  2  0
 13 14  1  0
 14 15  1  0
 15 16  1  0
 16 17  2  0
 16 18  1  0
 18 19  2  0
 19 20  1  0
 20 21  2  0
 21 22  1  0
 21 23  1  0
 23 24  2  0
 14  4  2  0
 13  6  1  0
 24 18  1  0
M  END
>  <Molecule>  (164) 
CHEMBL2003271

>  <Standard Type>  (164) 
Ki

>  <Standard Relation>  (164) 
>

>  <Standard Value>  (164) 
1584.89

>  <Standard Units>  (164) 
nM

>  <pChEMBL Value>  (164) 
nan

>  <Comment>  (164) 
inactive

>  <Compound Key>  (164) 
SID103904677

>  <Assay>  (164) 
CHEMBL1963742

>  <Assay Description>  (164) 
PUBCHEM_BIOASSAY: Navigating the Kinome. (Class of assay: other) Panel member name: JAK3

>  <BAO Format>  (164) 
assay format

>  <Target>  (164) 
CHEMBL2148

>  <Target Pref. Name>  (164) 
Tyrosine-protein kinase JAK3

>  <Target Organism>  (164) 
Homo sapiens

>  <Target Type>  (164) 
SINGLE PROTEIN

>  <Document>  (164) 
CHEMBL1201862

>  <Source>  (164) 
PubChem BioAssays

>  <Max Phase>  (164) 
0

>  <#Ro5 Violations>  (164) 
1

>  <Molecular Weight>  (164) 
399.69

>  <Ligand Efficiency BEI>  (164) 
nan

>  <Ligand Efficiency LE>  (164) 
nan

>  <Ligand Efficiency LLE>  (164) 
nan

>  <Ligand Efficiency SEI>  (164) 
nan

>  <ALogP>  (164) 
5.21

>  <Assay Organism>  (164) 
nan

>  <Assay Tissue ChEMBL ID>  (164) 
nan

>  <Assay Tissue Name>  (164) 
nan

>  <Assay Cell Type>  (164) 
nan

>  <Assay Subcellular Fraction>  (164) 
nan

>  <Organism Tax ID>  (164) 
9606

>  <BAO Format ID>  (164) 
BAO_0000019

>  <Published Type>  (164) 
nan

>  <Published Relation>  (164) 
nan

>  <Published Value>  (164) 
nan

>  <Published Units>  (164) 
nan

>  <Canonical Smiles>  (164) 
NC(=O)c1sc2ccc(Cl)c(Cl)c2c1NC(=O)c3ccc(Cl)cc3

>  <Data Validity Comment>  (164) 
nan

>  <Document Journal>  (164) 
nan

>  <Document Year>  (164) 
nan

>  <SRC ID>  (164) 
7

>  <UO Units>  (164) 
UO_0000065

>  <Potential Duplicate>  (164) 
False

>  <Class>  (164) 
0

$$$$

     RDKit          2D

 29 33  0  0  0  0  0  0  0  0999 V2000
   -6.8575   -1.5685    0.0000 F   0  0  0  0  0  0  0  0  0  0  0  0
   -6.2474   -0.1982    0.0000 C   0  0  0  0  0  0  0  0  0  0  0  0
   -7.1291    1.0153    0.0000 C   0  0  0  0  0  0  0  0  0  0  0  0
   -6.5190    2.3856    0.0000 C   0  0  0  0  0  0  0  0  0  0  0  0
   -5.0272    2.5424    0.0000 C   0  0  0  0  0  0  0  0  0  0  0  0
   -4.1455    1.3289    0.0000 C   0  0  0  0  0  0  0  0  0  0  0  0
   -4.7556   -0.0414    0.0000 C   0  0  0  0  0  0  0  0  0  0  0  0
   -4.4171    3.9127    0.0000 C   0  0  0  0  0  0  0  0  0  0  0  0
   -5.1671    5.2118    0.0000 N   0  0  0  0  0  0  0  0  0  0  0  0
   -4.1634    6.3265    0.0000 C   0  0  0  0  0  0  0  0  0  0  0  0
   -2.7931    5.7164    0.0000 N   0  0  0  0  0  0  0  0  0  0  0  0
   -1.4940    6.4664    0.0000 C   0  0  0  0  0  0  0  0  0  0  0  0
   -1.4940    7.9664    0.0000 C   0  0  0  0  0  0  0  0  0  0  0  0
   -0.1950    8.7164    0.0000 N   0  0  0  0  0  0  0  0  0  0  0  0
    1.1041    7.9664    0.0000 C   0  0  0  0  0  0  0  0  0  0  0  0
    2.4031    8.7164    0.0000 C   0  0  0  0  0  0  0  0  0  0  0  0
    2.4031   10.2164    0.0000 O   0  0  0  0  0  0  0  0  0  0  0  0
    1.1041   10.9664    0.0000 C   0  0  0  0  0  0  0  0  0  0  0  0
   -0.1950   10.2164    0.0000 C   0  0  0  0  0  0  0  0  0  0  0  0
   -2.9499    4.2246    0.0000 C   0  0  0  0  0  0  0  0  0  0  0  0
   -1.8351    3.2209    0.0000 C   0  0  0  0  0  0  0  0  0  0  0  0
   -0.4086    3.6844    0.0000 C   0  0  0  0  0  0  0  0  0  0  0  0
    0.7062    2.6807    0.0000 C   0  0  0  0  0  0  0  0  0  0  0  0
    0.3943    1.2135    0.0000 C   0  0  0  0  0  0  0  0  0  0  0  0
    1.2760    0.0000    0.0000 N   0  0  0  0  0  0  0  0  0  0  0  0
    0.3943   -1.2135    0.0000 N   0  0  0  0  0  0  0  0  0  0  0  0
   -1.0323   -0.7500    0.0000 C   0  0  0  0  0  0  0  0  0  0  0  0
   -1.0323    0.7500    0.0000 C   0  0  0  0  0  0  0  0  0  0  0  0
   -2.1470    1.7537    0.0000 C   0  0  0  0  0  0  0  0  0  0  0  0
  1  2  1  0
  2  3  2  0
  3  4  1  0
  4  5  2  0
  5  6  1  0
  6  7  2  0
  5  8  1  0
  8  9  1  0
  9 10  2  0
 10 11  1  0
 11 12  1  0
 12 13  1  0
 13 14  1  0
 14 15  1  0
 15 16  1  0
 16 17  1  0
 17 18  1  0
 18 19  1  0
 11 20  1  0
 20 21  1  0
 21 22  2  0
 22 23  1  0
 23 24  2  0
 24 25  1  0
 25 26  1  0
 26 27  2  0
 27 28  1  0
 28 29  2  0
  7  2  1  0
 20  8  2  0
 19 14  1  0
 29 21  1  0
 28 24  1  0
M  END
>  <Molecule>  (165) 
CHEMBL1682558

>  <Standard Type>  (165) 
Ki

>  <Standard Relation>  (165) 
>

>  <Standard Value>  (165) 
1584.89

>  <Standard Units>  (165) 
nM

>  <pChEMBL Value>  (165) 
nan

>  <Comment>  (165) 
inactive

>  <Compound Key>  (165) 
SID103904550

>  <Assay>  (165) 
CHEMBL1963742

>  <Assay Description>  (165) 
PUBCHEM_BIOASSAY: Navigating the Kinome. (Class of assay: other) Panel member name: JAK3

>  <BAO Format>  (165) 
assay format

>  <Target>  (165) 
CHEMBL2148

>  <Target Pref. Name>  (165) 
Tyrosine-protein kinase JAK3

>  <Target Organism>  (165) 
Homo sapiens

>  <Target Type>  (165) 
SINGLE PROTEIN

>  <Document>  (165) 
CHEMBL1201862

>  <Source>  (165) 
PubChem BioAssays

>  <Max Phase>  (165) 
0

>  <#Ro5 Violations>  (165) 
0

>  <Molecular Weight>  (165) 
391.45

>  <Ligand Efficiency BEI>  (165) 
nan

>  <Ligand Efficiency LE>  (165) 
nan

>  <Ligand Efficiency LLE>  (165) 
nan

>  <Ligand Efficiency SEI>  (165) 
nan

>  <ALogP>  (165) 
3.56

>  <Assay Organism>  (165) 
nan

>  <Assay Tissue ChEMBL ID>  (165) 
nan

>  <Assay Tissue Name>  (165) 
nan

>  <Assay Cell Type>  (165) 
nan

>  <Assay Subcellular Fraction>  (165) 
nan

>  <Organism Tax ID>  (165) 
9606

>  <BAO Format ID>  (165) 
BAO_0000019

>  <Published Type>  (165) 
nan

>  <Published Relation>  (165) 
nan

>  <Published Value>  (165) 
nan

>  <Published Units>  (165) 
nan

>  <Canonical Smiles>  (165) 
Fc1ccc(cc1)c2ncn(CCN3CCOCC3)c2c4ccc5[nH]ncc5c4

>  <Data Validity Comment>  (165) 
nan

>  <Document Journal>  (165) 
nan

>  <Document Year>  (165) 
nan

>  <SRC ID>  (165) 
7

>  <UO Units>  (165) 
UO_0000065

>  <Potential Duplicate>  (165) 
False

>  <Class>  (165) 
0

$$$$

     RDKit          2D

 25 29  0  0  0  0  0  0  0  0999 V2000
   -3.0000   -2.5981    0.0000 C   0  0  0  0  0  0  0  0  0  0  0  0
   -1.5000   -2.5981    0.0000 C   0  0  0  0  0  0  0  0  0  0  0  0
   -0.7500   -3.8971    0.0000 C   0  0  0  0  0  0  0  0  0  0  0  0
    0.7500   -3.8971    0.0000 C   0  0  0  0  0  0  0  0  0  0  0  0
    1.7537   -5.0118    0.0000 N   0  0  0  0  0  0  0  0  0  0  0  0
    3.1240   -4.4017    0.0000 N   0  0  0  0  0  0  0  0  0  0  0  0
    2.9672   -2.9099    0.0000 C   0  0  0  0  0  0  0  0  0  0  0  0
    4.0819   -1.9062    0.0000 S   0  0  0  0  0  0  0  0  0  0  0  0
    5.5085   -2.3698    0.0000 C   0  0  0  0  0  0  0  0  0  0  0  0
    6.6232   -1.3661    0.0000 C   0  0  0  0  0  0  0  0  0  0  0  0
    8.0905   -1.6779    0.0000 C   0  0  0  0  0  0  0  0  0  0  0  0
    8.8405   -0.3789    0.0000 N   0  0  0  0  0  0  0  0  0  0  0  0
   10.3077   -0.0670    0.0000 C   0  0  0  0  0  0  0  0  0  0  0  0
   10.7712    1.3595    0.0000 C   0  0  0  0  0  0  0  0  0  0  0  0
    9.7675    2.4743    0.0000 C   0  0  0  0  0  0  0  0  0  0  0  0
    8.3003    2.1624    0.0000 C   0  0  0  0  0  0  0  0  0  0  0  0
    7.8368    0.7358    0.0000 C   0  0  0  0  0  0  0  0  0  0  0  0
    6.4664    0.1257    0.0000 N   0  0  0  0  0  0  0  0  0  0  0  0
    1.5000   -2.5981    0.0000 N   0  0  0  0  0  0  0  0  0  0  0  0
    0.7500   -1.2990    0.0000 C   0  0  0  0  0  0  0  0  0  0  0  0
    1.5000    0.0000    0.0000 C   0  0  0  0  0  0  0  0  0  0  0  0
    0.7500    1.2990    0.0000 C   0  0  0  0  0  0  0  0  0  0  0  0
   -0.7500    1.2990    0.0000 C   0  0  0  0  0  0  0  0  0  0  0  0
   -1.5000    0.0000    0.0000 C   0  0  0  0  0  0  0  0  0  0  0  0
   -0.7500   -1.2990    0.0000 C   0  0  0  0  0  0  0  0  0  0  0  0
  1  2  1  0
  2  3  2  0
  3  4  1  0
  4  5  2  0
  5  6  1  0
  6  7  2  0
  7  8  1  0
  8  9  1  0
  9 10  1  0
 10 11  2  0
 11 12  1  0
 12 13  1  0
 13 14  2  0
 14 15  1  0
 15 16  2  0
 16 17  1  0
 17 18  2  0
  7 19  1  0
 19 20  1  0
 20 21  2  0
 21 22  1  0
 22 23  2  0
 23 24  1  0
 24 25  2  0
 25  2  1  0
 19  4  1  0
 18 10  1  0
 17 12  1  0
 25 20  1  0
M  END
>  <Molecule>  (166) 
CHEMBL1980704

>  <Standard Type>  (166) 
Ki

>  <Standard Relation>  (166) 
>

>  <Standard Value>  (166) 
1584.89

>  <Standard Units>  (166) 
nM

>  <pChEMBL Value>  (166) 
nan

>  <Comment>  (166) 
inactive

>  <Compound Key>  (166) 
SID103905204

>  <Assay>  (166) 
CHEMBL1963742

>  <Assay Description>  (166) 
PUBCHEM_BIOASSAY: Navigating the Kinome. (Class of assay: other) Panel member name: JAK3

>  <BAO Format>  (166) 
assay format

>  <Target>  (166) 
CHEMBL2148

>  <Target Pref. Name>  (166) 
Tyrosine-protein kinase JAK3

>  <Target Organism>  (166) 
Homo sapiens

>  <Target Type>  (166) 
SINGLE PROTEIN

>  <Document>  (166) 
CHEMBL1201862

>  <Source>  (166) 
PubChem BioAssays

>  <Max Phase>  (166) 
0

>  <#Ro5 Violations>  (166) 
0

>  <Molecular Weight>  (166) 
345.43

>  <Ligand Efficiency BEI>  (166) 
nan

>  <Ligand Efficiency LE>  (166) 
nan

>  <Ligand Efficiency LLE>  (166) 
nan

>  <Ligand Efficiency SEI>  (166) 
nan

>  <ALogP>  (166) 
4.13

>  <Assay Organism>  (166) 
nan

>  <Assay Tissue ChEMBL ID>  (166) 
nan

>  <Assay Tissue Name>  (166) 
nan

>  <Assay Cell Type>  (166) 
nan

>  <Assay Subcellular Fraction>  (166) 
nan

>  <Organism Tax ID>  (166) 
9606

>  <BAO Format ID>  (166) 
BAO_0000019

>  <Published Type>  (166) 
nan

>  <Published Relation>  (166) 
nan

>  <Published Value>  (166) 
nan

>  <Published Units>  (166) 
nan

>  <Canonical Smiles>  (166) 
Cc1cc2nnc(SCc3cn4ccccc4n3)n2c5ccccc15

>  <Data Validity Comment>  (166) 
nan

>  <Document Journal>  (166) 
nan

>  <Document Year>  (166) 
nan

>  <SRC ID>  (166) 
7

>  <UO Units>  (166) 
UO_0000065

>  <Potential Duplicate>  (166) 
False

>  <Class>  (166) 
0

$$$$

     RDKit          2D

 32 35  0  0  0  0  0  0  0  0999 V2000
    3.0000    0.0000    0.0000 C   0  0  0  0  0  0  0  0  0  0  0  0
    1.5000    0.0000    0.0000 C   0  0  0  0  0  0  0  0  0  0  0  0
    0.7500   -1.2990    0.0000 N   0  0  0  0  0  0  0  0  0  0  0  0
   -0.7500   -1.2990    0.0000 C   0  0  0  0  0  0  0  0  0  0  0  0
   -1.5000    0.0000    0.0000 C   0  0  0  0  0  0  0  0  0  0  0  0
   -0.7500    1.2990    0.0000 N   0  0  0  0  0  0  0  0  0  0  0  0
   -1.2135    2.7256    0.0000 C   0  0  0  0  0  0  0  0  0  0  0  0
   -2.6401    3.1891    0.0000 C   0  0  0  0  0  0  0  0  0  0  0  0
   -2.9520    4.6564    0.0000 C   0  0  0  0  0  0  0  0  0  0  0  0
   -4.3786    5.1199    0.0000 C   0  0  0  0  0  0  0  0  0  0  0  0
   -5.4933    4.1162    0.0000 N   0  0  0  0  0  0  0  0  0  0  0  0
   -5.1814    2.6490    0.0000 C   0  0  0  0  0  0  0  0  0  0  0  0
   -6.2961    1.6453    0.0000 N   0  0  0  0  0  0  0  0  0  0  0  0
   -7.7227    2.1088    0.0000 C   0  0  0  0  0  0  0  0  0  0  0  0
   -8.8374    1.1051    0.0000 C   0  0  0  0  0  0  0  0  0  0  0  0
   -7.8337   -0.0096    0.0000 C   0  0  0  0  0  0  0  0  0  0  0  0
   -9.8411    2.2198    0.0000 C   0  0  0  0  0  0  0  0  0  0  0  0
   -9.9521    0.1014    0.0000 C   0  0  0  0  0  0  0  0  0  0  0  0
  -11.3787    0.5649    0.0000 O   0  0  0  0  0  0  0  0  0  0  0  0
   -9.6403   -1.3658    0.0000 O   0  0  0  0  0  0  0  0  0  0  0  0
   -3.7548    2.1855    0.0000 N   0  0  0  0  0  0  0  0  0  0  0  0
   -0.0000    3.6073    0.0000 C   0  0  0  0  0  0  0  0  0  0  0  0
    1.2135    2.7256    0.0000 N   0  0  0  0  0  0  0  0  0  0  0  0
    0.7500    1.2990    0.0000 C   0  0  0  0  0  0  0  0  0  0  0  0
   -0.0000    5.1073    0.0000 C   0  0  0  0  0  0  0  0  0  0  0  0
   -1.2990    5.8573    0.0000 C   0  0  0  0  0  0  0  0  0  0  0  0
   -1.2990    7.3573    0.0000 C   0  0  0  0  0  0  0  0  0  0  0  0
   -0.0000    8.1073    0.0000 C   0  0  0  0  0  0  0  0  0  0  0  0
   -0.0000    9.6073    0.0000 F   0  0  0  0  0  0  0  0  0  0  0  0
    1.2990    7.3573    0.0000 C   0  0  0  0  0  0  0  0  0  0  0  0
    1.2990    5.8573    0.0000 C   0  0  0  0  0  0  0  0  0  0  0  0
    2.5981    5.1073    0.0000 F   0  0  0  0  0  0  0  0  0  0  0  0
  1  2  1  0
  2  3  2  0
  3  4  1  0
  4  5  2  0
  5  6  1  0
  6  7  1  0
  7  8  1  0
  8  9  2  0
  9 10  1  0
 10 11  2  0
 11 12  1  0
 12 13  1  0
 13 14  1  0
 14 15  1  0
 15 16  1  0
 15 17  1  0
 15 18  1  0
 18 19  2  0
 18 20  1  0
 12 21  2  0
  7 22  2  0
 22 23  1  0
 23 24  2  0
 22 25  1  0
 25 26  2  0
 26 27  1  0
 27 28  2  0
 28 29  1  0
 28 30  1  0
 30 31  2  0
 31 32  1  0
 24  2  1  0
 24  6  1  0
 21  8  1  0
 31 25  1  0
M  END
>  <Molecule>  (167) 
CHEMBL1971149

>  <Standard Type>  (167) 
Ki

>  <Standard Relation>  (167) 
>

>  <Standard Value>  (167) 
1584.89

>  <Standard Units>  (167) 
nM

>  <pChEMBL Value>  (167) 
nan

>  <Comment>  (167) 
inactive

>  <Compound Key>  (167) 
SID103904775

>  <Assay>  (167) 
CHEMBL1963742

>  <Assay Description>  (167) 
PUBCHEM_BIOASSAY: Navigating the Kinome. (Class of assay: other) Panel member name: JAK3

>  <BAO Format>  (167) 
assay format

>  <Target>  (167) 
CHEMBL2148

>  <Target Pref. Name>  (167) 
Tyrosine-protein kinase JAK3

>  <Target Organism>  (167) 
Homo sapiens

>  <Target Type>  (167) 
SINGLE PROTEIN

>  <Document>  (167) 
CHEMBL1201862

>  <Source>  (167) 
PubChem BioAssays

>  <Max Phase>  (167) 
0

>  <#Ro5 Violations>  (167) 
0

>  <Molecular Weight>  (167) 
438.44

>  <Ligand Efficiency BEI>  (167) 
nan

>  <Ligand Efficiency LE>  (167) 
nan

>  <Ligand Efficiency LLE>  (167) 
nan

>  <Ligand Efficiency SEI>  (167) 
nan

>  <ALogP>  (167) 
3.96

>  <Assay Organism>  (167) 
nan

>  <Assay Tissue ChEMBL ID>  (167) 
nan

>  <Assay Tissue Name>  (167) 
nan

>  <Assay Cell Type>  (167) 
nan

>  <Assay Subcellular Fraction>  (167) 
nan

>  <Organism Tax ID>  (167) 
9606

>  <BAO Format ID>  (167) 
BAO_0000019

>  <Published Type>  (167) 
nan

>  <Published Relation>  (167) 
nan

>  <Published Value>  (167) 
nan

>  <Published Units>  (167) 
nan

>  <Canonical Smiles>  (167) 
Cc1nccn2c(c3ccnc(NCC(C)(C)C(=O)O)n3)c(nc12)c4ccc(F)cc4F

>  <Data Validity Comment>  (167) 
nan

>  <Document Journal>  (167) 
nan

>  <Document Year>  (167) 
nan

>  <SRC ID>  (167) 
7

>  <UO Units>  (167) 
UO_0000065

>  <Potential Duplicate>  (167) 
False

>  <Class>  (167) 
0

$$$$

     RDKit          2D

 35 42  0  0  0  0  0  0  0  0999 V2000
    7.0384   -5.9220    0.0000 C   0  0  0  0  0  0  0  0  0  0  0  0
    6.3474   -4.5907    0.0000 N   0  0  0  0  0  0  0  0  0  0  0  0
    4.8489   -4.5234    0.0000 C   0  0  0  0  0  0  0  0  0  0  0  0
    4.0414   -5.7874    0.0000 C   0  0  0  0  0  0  0  0  0  0  0  0
    2.5382   -5.8249    0.0000 C   0  0  0  0  0  0  0  0  0  0  0  0
    3.2490   -4.5040    0.0000 O   0  0  0  0  0  0  0  0  0  0  0  0
    2.6595   -3.1247    0.0000 C   0  0  0  0  0  0  0  0  0  0  0  0
    3.6464   -1.9951    0.0000 C   0  0  0  0  0  0  0  0  0  0  0  0
    4.1580   -3.1920    0.0000 C   0  0  0  0  0  0  0  0  0  0  0  0
    4.9655   -1.9279    0.0000 O   0  0  0  0  0  0  0  0  0  0  0  0
    6.4640   -1.9952    0.0000 C   0  0  0  0  0  0  0  0  0  0  0  0
    1.2135   -2.7256    0.0000 N   0  0  0  0  0  0  0  0  0  0  0  0
    0.7500   -1.2990    0.0000 C   0  0  0  0  0  0  0  0  0  0  0  0
    1.5000    0.0000    0.0000 C   0  0  0  0  0  0  0  0  0  0  0  0
    0.7500    1.2990    0.0000 C   0  0  0  0  0  0  0  0  0  0  0  0
   -0.7500    1.2990    0.0000 C   0  0  0  0  0  0  0  0  0  0  0  0
   -1.5000    0.0000    0.0000 C   0  0  0  0  0  0  0  0  0  0  0  0
   -0.7500   -1.2990    0.0000 C   0  0  0  0  0  0  0  0  0  0  0  0
   -1.2135   -2.7256    0.0000 C   0  0  0  0  0  0  0  0  0  0  0  0
   -2.5518   -3.5691    0.0000 C   0  0  0  0  0  0  0  0  0  0  0  0
   -3.9561   -3.0421    0.0000 C   0  0  0  0  0  0  0  0  0  0  0  0
   -4.8913   -4.2148    0.0000 N   0  0  0  0  0  0  0  0  0  0  0  0
   -4.0650   -5.4667    0.0000 C   0  0  0  0  0  0  0  0  0  0  0  0
   -4.5921   -6.8710    0.0000 O   0  0  0  0  0  0  0  0  0  0  0  0
   -2.6191   -5.0676    0.0000 C   0  0  0  0  0  0  0  0  0  0  0  0
   -1.3550   -5.8751    0.0000 C   0  0  0  0  0  0  0  0  0  0  0  0
   -1.0212   -7.3375    0.0000 C   0  0  0  0  0  0  0  0  0  0  0  0
   -1.8846   -8.5641    0.0000 C   0  0  0  0  0  0  0  0  0  0  0  0
   -1.2541   -9.9251    0.0000 C   0  0  0  0  0  0  0  0  0  0  0  0
    0.2399  -10.0596    0.0000 C   0  0  0  0  0  0  0  0  0  0  0  0
    1.1033   -8.8330    0.0000 C   0  0  0  0  0  0  0  0  0  0  0  0
    0.4728   -7.4720    0.0000 C   0  0  0  0  0  0  0  0  0  0  0  0
    1.0623   -6.0927    0.0000 N   0  0  0  0  0  0  0  0  0  0  0  0
   -0.0673   -5.1058    0.0000 C   0  0  0  0  0  0  0  0  0  0  0  0
   -0.0000   -3.6073    0.0000 C   0  0  0  0  0  0  0  0  0  0  0  0
  1  2  1  0
  2  3  1  0
  3  4  1  0
  4  5  1  0
  5  6  1  0
  6  7  1  0
  7  8  1  0
  7  9  1  0
  9 10  1  0
 10 11  1  0
  7 12  1  0
 12 13  1  0
 13 14  2  0
 14 15  1  0
 15 16  2  0
 16 17  1  0
 17 18  2  0
 18 19  1  0
 19 20  2  0
 20 21  1  0
 21 22  1  0
 22 23  1  0
 23 24  2  0
 23 25  1  0
 25 26  2  0
 26 27  1  0
 27 28  2  0
 28 29  1  0
 29 30  2  0
 30 31  1  0
 31 32  2  0
 32 33  1  0
 33 34  1  0
 34 35  2  0
  9  3  1  0
 33  5  1  0
 35 12  1  0
 18 13  1  0
 35 19  1  0
 25 20  1  0
 34 26  1  0
 32 27  1  0
M  END
>  <Molecule>  (168) 
CHEMBL1980995

>  <Standard Type>  (168) 
Ki

>  <Standard Relation>  (168) 
=

>  <Standard Value>  (168) 
1.995

>  <Standard Units>  (168) 
nM

>  <pChEMBL Value>  (168) 
8.7

>  <Comment>  (168) 
active

>  <Compound Key>  (168) 
SID103905531

>  <Assay>  (168) 
CHEMBL1963742

>  <Assay Description>  (168) 
PUBCHEM_BIOASSAY: Navigating the Kinome. (Class of assay: other) Panel member name: JAK3

>  <BAO Format>  (168) 
assay format

>  <Target>  (168) 
CHEMBL2148

>  <Target Pref. Name>  (168) 
Tyrosine-protein kinase JAK3

>  <Target Organism>  (168) 
Homo sapiens

>  <Target Type>  (168) 
SINGLE PROTEIN

>  <Document>  (168) 
CHEMBL1201862

>  <Source>  (168) 
PubChem BioAssays

>  <Max Phase>  (168) 
0

>  <#Ro5 Violations>  (168) 
0

>  <Molecular Weight>  (168) 
466.54

>  <Ligand Efficiency BEI>  (168) 
nan

>  <Ligand Efficiency LE>  (168) 
nan

>  <Ligand Efficiency LLE>  (168) 
nan

>  <Ligand Efficiency SEI>  (168) 
nan

>  <ALogP>  (168) 
4.35

>  <Assay Organism>  (168) 
nan

>  <Assay Tissue ChEMBL ID>  (168) 
nan

>  <Assay Tissue Name>  (168) 
nan

>  <Assay Cell Type>  (168) 
nan

>  <Assay Subcellular Fraction>  (168) 
nan

>  <Organism Tax ID>  (168) 
9606

>  <BAO Format ID>  (168) 
BAO_0000019

>  <Published Type>  (168) 
nan

>  <Published Relation>  (168) 
nan

>  <Published Value>  (168) 
nan

>  <Published Units>  (168) 
nan

>  <Canonical Smiles>  (168) 
CNC1CC2OC(C)(C1OC)n3c4ccccc4c5c6CNC(=O)c6c7c8ccccc8n2c7c35

>  <Data Validity Comment>  (168) 
nan

>  <Document Journal>  (168) 
nan

>  <Document Year>  (168) 
nan

>  <SRC ID>  (168) 
7

>  <UO Units>  (168) 
UO_0000065

>  <Potential Duplicate>  (168) 
False

>  <Class>  (168) 
1

$$$$

     RDKit          2D

 39 42  0  0  0  0  0  0  0  0999 V2000
   -7.5275  -12.0000    0.0000 C   0  0  0  0  0  0  0  0  0  0  0  0
   -7.5275  -10.5000    0.0000 C   0  0  0  0  0  0  0  0  0  0  0  0
   -6.2284   -9.7500    0.0000 N   0  0  0  0  0  0  0  0  0  0  0  0
   -4.9294  -10.5000    0.0000 C   0  0  0  0  0  0  0  0  0  0  0  0
   -4.9294  -12.0000    0.0000 C   0  0  0  0  0  0  0  0  0  0  0  0
   -6.2284   -8.2500    0.0000 C   0  0  0  0  0  0  0  0  0  0  0  0
   -4.9294   -7.5000    0.0000 C   0  0  0  0  0  0  0  0  0  0  0  0
   -4.9294   -6.0000    0.0000 N   0  0  0  0  0  0  0  0  0  0  0  0
   -3.6304   -5.2500    0.0000 C   0  0  0  0  0  0  0  0  0  0  0  0
   -2.3313   -6.0000    0.0000 O   0  0  0  0  0  0  0  0  0  0  0  0
   -3.6304   -3.7500    0.0000 C   0  0  0  0  0  0  0  0  0  0  0  0
   -2.3313   -3.0000    0.0000 C   0  0  0  0  0  0  0  0  0  0  0  0
   -2.3313   -1.5000    0.0000 C   0  0  0  0  0  0  0  0  0  0  0  0
   -3.6304   -0.7500    0.0000 C   0  0  0  0  0  0  0  0  0  0  0  0
   -3.6304    0.7500    0.0000 N   0  0  0  0  0  0  0  0  0  0  0  0
   -2.3313    1.5000    0.0000 C   0  0  0  0  0  0  0  0  0  0  0  0
   -2.3313    3.0000    0.0000 N   0  0  0  0  0  0  0  0  0  0  0  0
   -1.0323    0.7500    0.0000 C   0  0  0  0  0  0  0  0  0  0  0  0
    0.3943    1.2135    0.0000 C   0  0  0  0  0  0  0  0  0  0  0  0
    1.2760    0.0000    0.0000 C   0  0  0  0  0  0  0  0  0  0  0  0
    0.3943   -1.2135    0.0000 S   0  0  0  0  0  0  0  0  0  0  0  0
   -1.0323   -0.7500    0.0000 C   0  0  0  0  0  0  0  0  0  0  0  0
    0.8578    2.6401    0.0000 C   0  0  0  0  0  0  0  0  0  0  0  0
    2.3250    2.9520    0.0000 C   0  0  0  0  0  0  0  0  0  0  0  0
    2.7886    4.3786    0.0000 C   0  0  0  0  0  0  0  0  0  0  0  0
    1.7849    5.4933    0.0000 C   0  0  0  0  0  0  0  0  0  0  0  0
    2.2484    6.9199    0.0000 N   0  0  0  0  0  0  0  0  0  0  0  0
    3.7156    7.2317    0.0000 C   0  0  0  0  0  0  0  0  0  0  0  0
    4.7193    6.1170    0.0000 O   0  0  0  0  0  0  0  0  0  0  0  0
    4.1791    8.6583    0.0000 N   0  0  0  0  0  0  0  0  0  0  0  0
    5.6464    8.9702    0.0000 C   0  0  0  0  0  0  0  0  0  0  0  0
    6.6501    7.8555    0.0000 C   0  0  0  0  0  0  0  0  0  0  0  0
    8.1173    8.1673    0.0000 C   0  0  0  0  0  0  0  0  0  0  0  0
    8.5808    9.5939    0.0000 C   0  0  0  0  0  0  0  0  0  0  0  0
    7.5771   10.7086    0.0000 C   0  0  0  0  0  0  0  0  0  0  0  0
    8.0406   12.1352    0.0000 C   0  0  0  0  0  0  0  0  0  0  0  0
    6.1099   10.3968    0.0000 C   0  0  0  0  0  0  0  0  0  0  0  0
    0.3177    5.1814    0.0000 C   0  0  0  0  0  0  0  0  0  0  0  0
   -0.1459    3.7548    0.0000 C   0  0  0  0  0  0  0  0  0  0  0  0
  1  2  1  0
  2  3  1  0
  3  4  1  0
  4  5  1  0
  3  6  1  0
  6  7  1  0
  7  8  1  0
  8  9  1  0
  9 10  2  0
  9 11  1  0
 11 12  2  3
 12 13  1  0
 13 14  2  0
 14 15  1  0
 15 16  2  0
 16 17  1  0
 16 18  1  0
 18 19  1  0
 19 20  2  0
 20 21  1  0
 21 22  1  0
 19 23  1  0
 23 24  2  0
 24 25  1  0
 25 26  2  0
 26 27  1  0
 27 28  1  0
 28 29  2  0
 28 30  1  0
 30 31  1  0
 31 32  2  0
 32 33  1  0
 33 34  2  0
 34 35  1  0
 35 36  1  0
 35 37  2  0
 26 38  1  0
 38 39  2  0
 22 13  1  0
 22 18  2  0
 39 23  1  0
 37 31  1  0
M  END
>  <Molecule>  (169) 
CHEMBL2004716

>  <Standard Type>  (169) 
Ki

>  <Standard Relation>  (169) 
=

>  <Standard Value>  (169) 
398.11

>  <Standard Units>  (169) 
nM

>  <pChEMBL Value>  (169) 
6.4

>  <Comment>  (169) 
active

>  <Compound Key>  (169) 
SID103904320

>  <Assay>  (169) 
CHEMBL1963742

>  <Assay Description>  (169) 
PUBCHEM_BIOASSAY: Navigating the Kinome. (Class of assay: other) Panel member name: JAK3

>  <BAO Format>  (169) 
assay format

>  <Target>  (169) 
CHEMBL2148

>  <Target Pref. Name>  (169) 
Tyrosine-protein kinase JAK3

>  <Target Organism>  (169) 
Homo sapiens

>  <Target Type>  (169) 
SINGLE PROTEIN

>  <Document>  (169) 
CHEMBL1201862

>  <Source>  (169) 
PubChem BioAssays

>  <Max Phase>  (169) 
0

>  <#Ro5 Violations>  (169) 
2

>  <Molecular Weight>  (169) 
542.71

>  <Ligand Efficiency BEI>  (169) 
nan

>  <Ligand Efficiency LE>  (169) 
nan

>  <Ligand Efficiency LLE>  (169) 
nan

>  <Ligand Efficiency SEI>  (169) 
nan

>  <ALogP>  (169) 
5.97

>  <Assay Organism>  (169) 
nan

>  <Assay Tissue ChEMBL ID>  (169) 
nan

>  <Assay Tissue Name>  (169) 
nan

>  <Assay Cell Type>  (169) 
nan

>  <Assay Subcellular Fraction>  (169) 
nan

>  <Organism Tax ID>  (169) 
9606

>  <BAO Format ID>  (169) 
BAO_0000019

>  <Published Type>  (169) 
nan

>  <Published Relation>  (169) 
nan

>  <Published Value>  (169) 
nan

>  <Published Units>  (169) 
nan

>  <Canonical Smiles>  (169) 
CCN(CC)CCNC(=O)C=Cc1cnc(N)c2c(csc12)c3ccc(NC(=O)Nc4cccc(C)c4)cc3

>  <Data Validity Comment>  (169) 
nan

>  <Document Journal>  (169) 
nan

>  <Document Year>  (169) 
nan

>  <SRC ID>  (169) 
7

>  <UO Units>  (169) 
UO_0000065

>  <Potential Duplicate>  (169) 
False

>  <Class>  (169) 
1

$$$$

     RDKit          2D

 29 33  0  0  0  0  0  0  0  0999 V2000
    3.5260   -1.2990    0.0000 N   0  0  0  0  0  0  0  0  0  0  0  0
    2.7760    0.0000    0.0000 C   0  0  0  0  0  0  0  0  0  0  0  0
    3.5260    1.2990    0.0000 O   0  0  0  0  0  0  0  0  0  0  0  0
    1.2760    0.0000    0.0000 C   0  0  0  0  0  0  0  0  0  0  0  0
    0.3943    1.2135    0.0000 C   0  0  0  0  0  0  0  0  0  0  0  0
   -1.0323    0.7500    0.0000 C   0  0  0  0  0  0  0  0  0  0  0  0
   -2.3313    1.5000    0.0000 C   0  0  0  0  0  0  0  0  0  0  0  0
   -3.6304    0.7500    0.0000 C   0  0  0  0  0  0  0  0  0  0  0  0
   -3.6304   -0.7500    0.0000 N   0  0  0  0  0  0  0  0  0  0  0  0
   -2.3313   -1.5000    0.0000 C   0  0  0  0  0  0  0  0  0  0  0  0
   -2.3313   -3.0000    0.0000 N   0  0  0  0  0  0  0  0  0  0  0  0
   -1.0323   -0.7500    0.0000 C   0  0  0  0  0  0  0  0  0  0  0  0
    0.3943   -1.2135    0.0000 S   0  0  0  0  0  0  0  0  0  0  0  0
   -2.3313    3.0000    0.0000 C   0  0  0  0  0  0  0  0  0  0  0  0
   -1.0323    3.7500    0.0000 C   0  0  0  0  0  0  0  0  0  0  0  0
   -1.0323    5.2500    0.0000 C   0  0  0  0  0  0  0  0  0  0  0  0
   -2.3313    6.0000    0.0000 C   0  0  0  0  0  0  0  0  0  0  0  0
   -2.3313    7.5000    0.0000 N   0  0  0  0  0  0  0  0  0  0  0  0
   -1.0323    8.2500    0.0000 C   0  0  0  0  0  0  0  0  0  0  0  0
    0.3380    7.6399    0.0000 O   0  0  0  0  0  0  0  0  0  0  0  0
    1.3417    8.7546    0.0000 C   0  0  0  0  0  0  0  0  0  0  0  0
    2.8417    8.7546    0.0000 C   0  0  0  0  0  0  0  0  0  0  0  0
    3.5917   10.0537    0.0000 C   0  0  0  0  0  0  0  0  0  0  0  0
    2.8417   11.3527    0.0000 C   0  0  0  0  0  0  0  0  0  0  0  0
    1.3417   11.3527    0.0000 C   0  0  0  0  0  0  0  0  0  0  0  0
    0.5917   10.0537    0.0000 C   0  0  0  0  0  0  0  0  0  0  0  0
   -0.8755    9.7418    0.0000 N   0  0  0  0  0  0  0  0  0  0  0  0
   -3.6304    5.2500    0.0000 C   0  0  0  0  0  0  0  0  0  0  0  0
   -3.6304    3.7500    0.0000 C   0  0  0  0  0  0  0  0  0  0  0  0
  1  2  1  0
  2  3  2  0
  2  4  1  0
  4  5  2  0
  5  6  1  0
  6  7  2  0
  7  8  1  0
  8  9  2  0
  9 10  1  0
 10 11  1  0
 10 12  2  0
 12 13  1  0
  7 14  1  0
 14 15  2  0
 15 16  1  0
 16 17  2  0
 17 18  1  0
 18 19  1  0
 19 20  1  0
 20 21  1  0
 21 22  2  0
 22 23  1  0
 23 24  2  0
 24 25  1  0
 25 26  2  0
 26 27  1  0
 17 28  1  0
 28 29  2  0
 13  4  1  0
 12  6  1  0
 29 14  1  0
 27 19  2  0
 26 21  1  0
M  END
>  <Molecule>  (170) 
CHEMBL1993904

>  <Standard Type>  (170) 
Ki

>  <Standard Relation>  (170) 
>

>  <Standard Value>  (170) 
5011.87

>  <Standard Units>  (170) 
nM

>  <pChEMBL Value>  (170) 
nan

>  <Comment>  (170) 
inactive

>  <Compound Key>  (170) 
SID103904645

>  <Assay>  (170) 
CHEMBL1963742

>  <Assay Description>  (170) 
PUBCHEM_BIOASSAY: Navigating the Kinome. (Class of assay: other) Panel member name: JAK3

>  <BAO Format>  (170) 
assay format

>  <Target>  (170) 
CHEMBL2148

>  <Target Pref. Name>  (170) 
Tyrosine-protein kinase JAK3

>  <Target Organism>  (170) 
Homo sapiens

>  <Target Type>  (170) 
SINGLE PROTEIN

>  <Document>  (170) 
CHEMBL1201862

>  <Source>  (170) 
PubChem BioAssays

>  <Max Phase>  (170) 
0

>  <#Ro5 Violations>  (170) 
0

>  <Molecular Weight>  (170) 
401.45

>  <Ligand Efficiency BEI>  (170) 
nan

>  <Ligand Efficiency LE>  (170) 
nan

>  <Ligand Efficiency LLE>  (170) 
nan

>  <Ligand Efficiency SEI>  (170) 
nan

>  <ALogP>  (170) 
4.53

>  <Assay Organism>  (170) 
nan

>  <Assay Tissue ChEMBL ID>  (170) 
nan

>  <Assay Tissue Name>  (170) 
nan

>  <Assay Cell Type>  (170) 
nan

>  <Assay Subcellular Fraction>  (170) 
nan

>  <Organism Tax ID>  (170) 
9606

>  <BAO Format ID>  (170) 
BAO_0000019

>  <Published Type>  (170) 
nan

>  <Published Relation>  (170) 
nan

>  <Published Value>  (170) 
nan

>  <Published Units>  (170) 
nan

>  <Canonical Smiles>  (170) 
NC(=O)c1cc2c(cnc(N)c2s1)c3ccc(Nc4oc5ccccc5n4)cc3

>  <Data Validity Comment>  (170) 
nan

>  <Document Journal>  (170) 
nan

>  <Document Year>  (170) 
nan

>  <SRC ID>  (170) 
7

>  <UO Units>  (170) 
UO_0000065

>  <Potential Duplicate>  (170) 
False

>  <Class>  (170) 
0

$$$$

     RDKit          2D

 26 29  0  0  0  0  0  0  0  0999 V2000
    4.6740   -4.8322    0.0000 C   0  0  0  0  0  0  0  0  0  0  0  0
    3.3037   -4.2221    0.0000 C   0  0  0  0  0  0  0  0  0  0  0  0
    2.9918   -2.7549    0.0000 C   0  0  0  0  0  0  0  0  0  0  0  0
    1.5000   -2.5981    0.0000 C   0  0  0  0  0  0  0  0  0  0  0  0
    0.7500   -1.2990    0.0000 C   0  0  0  0  0  0  0  0  0  0  0  0
    1.5000    0.0000    0.0000 C   0  0  0  0  0  0  0  0  0  0  0  0
    0.7500    1.2990    0.0000 C   0  0  0  0  0  0  0  0  0  0  0  0
   -0.7500    1.2990    0.0000 C   0  0  0  0  0  0  0  0  0  0  0  0
   -1.5000    0.0000    0.0000 C   0  0  0  0  0  0  0  0  0  0  0  0
   -0.7500   -1.2990    0.0000 C   0  0  0  0  0  0  0  0  0  0  0  0
    0.8899   -3.9684    0.0000 N   0  0  0  0  0  0  0  0  0  0  0  0
    2.0046   -4.9721    0.0000 N   0  0  0  0  0  0  0  0  0  0  0  0
   -0.5773   -4.2803    0.0000 C   0  0  0  0  0  0  0  0  0  0  0  0
   -1.5810   -3.1655    0.0000 C   0  0  0  0  0  0  0  0  0  0  0  0
   -3.0482   -3.4774    0.0000 C   0  0  0  0  0  0  0  0  0  0  0  0
   -4.0519   -2.3627    0.0000 N   0  0  0  0  0  0  0  0  0  0  0  0
   -5.5192   -2.6746    0.0000 N   0  0  0  0  0  0  0  0  0  0  0  0
   -6.5229   -1.5598    0.0000 C   0  0  0  0  0  0  0  0  0  0  0  0
   -7.9901   -1.8717    0.0000 C   0  0  0  0  0  0  0  0  0  0  0  0
   -8.6002   -3.2420    0.0000 O   0  0  0  0  0  0  0  0  0  0  0  0
  -10.0920   -3.0852    0.0000 C   0  0  0  0  0  0  0  0  0  0  0  0
  -10.4038   -1.6180    0.0000 C   0  0  0  0  0  0  0  0  0  0  0  0
   -9.1048   -0.8680    0.0000 C   0  0  0  0  0  0  0  0  0  0  0  0
   -3.5118   -4.9040    0.0000 N   0  0  0  0  0  0  0  0  0  0  0  0
   -2.5081   -6.0187    0.0000 C   0  0  0  0  0  0  0  0  0  0  0  0
   -1.0409   -5.7068    0.0000 N   0  0  0  0  0  0  0  0  0  0  0  0
  1  2  1  0
  2  3  1  0
  3  4  2  0
  4  5  1  0
  5  6  2  0
  6  7  1  0
  7  8  2  0
  8  9  1  0
  9 10  2  0
  4 11  1  0
 11 12  1  0
 11 13  1  0
 13 14  2  0
 14 15  1  0
 15 16  1  0
 16 17  1  0
 17 18  2  3
 18 19  1  0
 19 20  1  0
 20 21  1  0
 21 22  2  0
 22 23  1  0
 15 24  2  0
 24 25  1  0
 25 26  2  0
 12  2  2  0
 10  5  1  0
 26 13  1  0
 23 19  2  0
M  END
>  <Molecule>  (171) 
CHEMBL1999590

>  <Standard Type>  (171) 
Ki

>  <Standard Relation>  (171) 
>

>  <Standard Value>  (171) 
1584.89

>  <Standard Units>  (171) 
nM

>  <pChEMBL Value>  (171) 
nan

>  <Comment>  (171) 
inactive

>  <Compound Key>  (171) 
SID103905140

>  <Assay>  (171) 
CHEMBL1963742

>  <Assay Description>  (171) 
PUBCHEM_BIOASSAY: Navigating the Kinome. (Class of assay: other) Panel member name: JAK3

>  <BAO Format>  (171) 
assay format

>  <Target>  (171) 
CHEMBL2148

>  <Target Pref. Name>  (171) 
Tyrosine-protein kinase JAK3

>  <Target Organism>  (171) 
Homo sapiens

>  <Target Type>  (171) 
SINGLE PROTEIN

>  <Document>  (171) 
CHEMBL1201862

>  <Source>  (171) 
PubChem BioAssays

>  <Max Phase>  (171) 
0

>  <#Ro5 Violations>  (171) 
0

>  <Molecular Weight>  (171) 
344.38

>  <Ligand Efficiency BEI>  (171) 
nan

>  <Ligand Efficiency LE>  (171) 
nan

>  <Ligand Efficiency LLE>  (171) 
nan

>  <Ligand Efficiency SEI>  (171) 
nan

>  <ALogP>  (171) 
3.68

>  <Assay Organism>  (171) 
nan

>  <Assay Tissue ChEMBL ID>  (171) 
nan

>  <Assay Tissue Name>  (171) 
nan

>  <Assay Cell Type>  (171) 
nan

>  <Assay Subcellular Fraction>  (171) 
nan

>  <Organism Tax ID>  (171) 
9606

>  <BAO Format ID>  (171) 
BAO_0000019

>  <Published Type>  (171) 
nan

>  <Published Relation>  (171) 
nan

>  <Published Value>  (171) 
nan

>  <Published Units>  (171) 
nan

>  <Canonical Smiles>  (171) 
Cc1cc(c2ccccc2)n(n1)c3cc(NN=Cc4occc4)ncn3

>  <Data Validity Comment>  (171) 
nan

>  <Document Journal>  (171) 
nan

>  <Document Year>  (171) 
nan

>  <SRC ID>  (171) 
7

>  <UO Units>  (171) 
UO_0000065

>  <Potential Duplicate>  (171) 
False

>  <Class>  (171) 
0

$$$$

     RDKit          2D

 25 27  0  0  0  0  0  0  0  0999 V2000
   -6.2961   -1.6453    0.0000 O   0  0  0  0  0  0  0  0  0  0  0  0
   -5.1814   -2.6490    0.0000 C   0  0  0  0  0  0  0  0  0  0  0  0
   -3.7548   -2.1855    0.0000 C   0  0  0  0  0  0  0  0  0  0  0  0
   -2.6401   -3.1891    0.0000 C   0  0  0  0  0  0  0  0  0  0  0  0
   -1.2135   -2.7256    0.0000 N   0  0  0  0  0  0  0  0  0  0  0  0
   -0.0000   -3.6073    0.0000 C   0  0  0  0  0  0  0  0  0  0  0  0
   -0.0000   -5.1073    0.0000 N   0  0  0  0  0  0  0  0  0  0  0  0
   -1.2990   -5.8573    0.0000 C   0  0  0  0  0  0  0  0  0  0  0  0
   -2.5981   -5.1073    0.0000 O   0  0  0  0  0  0  0  0  0  0  0  0
   -1.2990   -7.3573    0.0000 C   0  0  0  0  0  0  0  0  0  0  0  0
   -2.5981   -8.1073    0.0000 C   0  0  0  0  0  0  0  0  0  0  0  0
   -2.5981   -9.6073    0.0000 C   0  0  0  0  0  0  0  0  0  0  0  0
   -1.2990  -10.3573    0.0000 C   0  0  0  0  0  0  0  0  0  0  0  0
   -0.0000   -9.6073    0.0000 C   0  0  0  0  0  0  0  0  0  0  0  0
   -0.0000   -8.1073    0.0000 C   0  0  0  0  0  0  0  0  0  0  0  0
    1.2990  -10.3573    0.0000 N   0  0  0  0  0  0  0  0  0  0  0  0
    2.5981   -9.6073    0.0000 O   0  0  0  0  0  0  0  0  0  0  0  0
    1.2990  -11.8573    0.0000 O   0  0  0  0  0  0  0  0  0  0  0  0
    1.2135   -2.7256    0.0000 N   0  0  0  0  0  0  0  0  0  0  0  0
    0.7500   -1.2990    0.0000 C   0  0  0  0  0  0  0  0  0  0  0  0
    1.5000    0.0000    0.0000 C   0  0  0  0  0  0  0  0  0  0  0  0
    0.7500    1.2990    0.0000 C   0  0  0  0  0  0  0  0  0  0  0  0
   -0.7500    1.2990    0.0000 C   0  0  0  0  0  0  0  0  0  0  0  0
   -1.5000    0.0000    0.0000 C   0  0  0  0  0  0  0  0  0  0  0  0
   -0.7500   -1.2990    0.0000 C   0  0  0  0  0  0  0  0  0  0  0  0
  1  2  1  0
  2  3  1  0
  3  4  1  0
  4  5  1  0
  5  6  1  0
  6  7  1  0
  7  8  1  0
  8  9  2  0
  8 10  1  0
 10 11  2  0
 11 12  1  0
 12 13  2  0
 13 14  1  0
 14 15  2  0
 14 16  1  0
 16 17  2  0
 16 18  1  0
  6 19  2  0
 19 20  1  0
 20 21  2  0
 21 22  1  0
 22 23  2  0
 23 24  1  0
 24 25  2  0
 25  5  1  0
 15 10  1  0
 25 20  1  0
M  CHG  2  16   1  18  -1
M  END
>  <Molecule>  (172) 
CHEMBL210887

>  <Standard Type>  (172) 
Ki

>  <Standard Relation>  (172) 
>

>  <Standard Value>  (172) 
1584.89

>  <Standard Units>  (172) 
nM

>  <pChEMBL Value>  (172) 
nan

>  <Comment>  (172) 
inactive

>  <Compound Key>  (172) 
SID103905079

>  <Assay>  (172) 
CHEMBL1963742

>  <Assay Description>  (172) 
PUBCHEM_BIOASSAY: Navigating the Kinome. (Class of assay: other) Panel member name: JAK3

>  <BAO Format>  (172) 
assay format

>  <Target>  (172) 
CHEMBL2148

>  <Target Pref. Name>  (172) 
Tyrosine-protein kinase JAK3

>  <Target Organism>  (172) 
Homo sapiens

>  <Target Type>  (172) 
SINGLE PROTEIN

>  <Document>  (172) 
CHEMBL1201862

>  <Source>  (172) 
PubChem BioAssays

>  <Max Phase>  (172) 
0

>  <#Ro5 Violations>  (172) 
0

>  <Molecular Weight>  (172) 
340.34

>  <Ligand Efficiency BEI>  (172) 
nan

>  <Ligand Efficiency LE>  (172) 
nan

>  <Ligand Efficiency LLE>  (172) 
nan

>  <Ligand Efficiency SEI>  (172) 
nan

>  <ALogP>  (172) 
2.58

>  <Assay Organism>  (172) 
nan

>  <Assay Tissue ChEMBL ID>  (172) 
nan

>  <Assay Tissue Name>  (172) 
nan

>  <Assay Cell Type>  (172) 
nan

>  <Assay Subcellular Fraction>  (172) 
nan

>  <Organism Tax ID>  (172) 
9606

>  <BAO Format ID>  (172) 
BAO_0000019

>  <Published Type>  (172) 
nan

>  <Published Relation>  (172) 
nan

>  <Published Value>  (172) 
nan

>  <Published Units>  (172) 
nan

>  <Canonical Smiles>  (172) 
OCCCn1c(NC(=O)c2cccc(c2)[N+](=O)[O-])nc3ccccc13

>  <Data Validity Comment>  (172) 
nan

>  <Document Journal>  (172) 
nan

>  <Document Year>  (172) 
nan

>  <SRC ID>  (172) 
7

>  <UO Units>  (172) 
UO_0000065

>  <Potential Duplicate>  (172) 
False

>  <Class>  (172) 
0

$$$$

     RDKit          2D

 26 29  0  0  0  0  0  0  0  0999 V2000
   -8.7026   14.6485    0.0000 F   0  0  0  0  0  0  0  0  0  0  0  0
   -7.5878   13.6448    0.0000 C   0  0  0  0  0  0  0  0  0  0  0  0
   -6.1613   14.1083    0.0000 C   0  0  0  0  0  0  0  0  0  0  0  0
   -5.0465   13.1046    0.0000 C   0  0  0  0  0  0  0  0  0  0  0  0
   -5.3584   11.6374    0.0000 C   0  0  0  0  0  0  0  0  0  0  0  0
   -6.7850   11.1738    0.0000 C   0  0  0  0  0  0  0  0  0  0  0  0
   -7.0969    9.7066    0.0000 N   0  0  0  0  0  0  0  0  0  0  0  0
   -5.9821    8.7029    0.0000 C   0  0  0  0  0  0  0  0  0  0  0  0
   -4.5556    9.1664    0.0000 O   0  0  0  0  0  0  0  0  0  0  0  0
   -6.2940    7.2357    0.0000 N   0  0  0  0  0  0  0  0  0  0  0  0
   -5.1793    6.2320    0.0000 C   0  0  0  0  0  0  0  0  0  0  0  0
   -5.4912    4.7648    0.0000 C   0  0  0  0  0  0  0  0  0  0  0  0
   -4.3764    3.7611    0.0000 C   0  0  0  0  0  0  0  0  0  0  0  0
   -2.9499    4.2246    0.0000 C   0  0  0  0  0  0  0  0  0  0  0  0
   -2.6380    5.6918    0.0000 C   0  0  0  0  0  0  0  0  0  0  0  0
   -3.7527    6.6955    0.0000 C   0  0  0  0  0  0  0  0  0  0  0  0
   -1.8351    3.2209    0.0000 C   0  0  0  0  0  0  0  0  0  0  0  0
   -0.4086    3.6844    0.0000 C   0  0  0  0  0  0  0  0  0  0  0  0
    0.7062    2.6807    0.0000 C   0  0  0  0  0  0  0  0  0  0  0  0
    0.3943    1.2135    0.0000 C   0  0  0  0  0  0  0  0  0  0  0  0
    1.2760    0.0000    0.0000 C   0  0  0  0  0  0  0  0  0  0  0  0
    0.3943   -1.2135    0.0000 N   0  0  0  0  0  0  0  0  0  0  0  0
   -1.0323   -0.7500    0.0000 N   0  0  0  0  0  0  0  0  0  0  0  0
   -1.0323    0.7500    0.0000 C   0  0  0  0  0  0  0  0  0  0  0  0
   -2.1470    1.7537    0.0000 C   0  0  0  0  0  0  0  0  0  0  0  0
   -7.8997   12.1775    0.0000 C   0  0  0  0  0  0  0  0  0  0  0  0
  1  2  1  0
  2  3  2  0
  3  4  1  0
  4  5  2  0
  5  6  1  0
  6  7  1  0
  7  8  1  0
  8  9  2  0
  8 10  1  0
 10 11  1  0
 11 12  2  0
 12 13  1  0
 13 14  2  0
 14 15  1  0
 15 16  2  0
 14 17  1  0
 17 18  2  0
 18 19  1  0
 19 20  2  0
 20 21  1  0
 21 22  2  0
 22 23  1  0
 23 24  1  0
 24 25  2  0
  6 26  2  0
 26  2  1  0
 16 11  1  0
 25 17  1  0
 24 20  1  0
M  END
>  <Molecule>  (173) 
CHEMBL1969942

>  <Standard Type>  (173) 
Ki

>  <Standard Relation>  (173) 
>

>  <Standard Value>  (173) 
5011.87

>  <Standard Units>  (173) 
nM

>  <pChEMBL Value>  (173) 
nan

>  <Comment>  (173) 
inactive

>  <Compound Key>  (173) 
SID103904455

>  <Assay>  (173) 
CHEMBL1963742

>  <Assay Description>  (173) 
PUBCHEM_BIOASSAY: Navigating the Kinome. (Class of assay: other) Panel member name: JAK3

>  <BAO Format>  (173) 
assay format

>  <Target>  (173) 
CHEMBL2148

>  <Target Pref. Name>  (173) 
Tyrosine-protein kinase JAK3

>  <Target Organism>  (173) 
Homo sapiens

>  <Target Type>  (173) 
SINGLE PROTEIN

>  <Document>  (173) 
CHEMBL1201862

>  <Source>  (173) 
PubChem BioAssays

>  <Max Phase>  (173) 
0

>  <#Ro5 Violations>  (173) 
1

>  <Molecular Weight>  (173) 
346.37

>  <Ligand Efficiency BEI>  (173) 
nan

>  <Ligand Efficiency LE>  (173) 
nan

>  <Ligand Efficiency LLE>  (173) 
nan

>  <Ligand Efficiency SEI>  (173) 
nan

>  <ALogP>  (173) 
5.01

>  <Assay Organism>  (173) 
nan

>  <Assay Tissue ChEMBL ID>  (173) 
nan

>  <Assay Tissue Name>  (173) 
nan

>  <Assay Cell Type>  (173) 
nan

>  <Assay Subcellular Fraction>  (173) 
nan

>  <Organism Tax ID>  (173) 
9606

>  <BAO Format ID>  (173) 
BAO_0000019

>  <Published Type>  (173) 
nan

>  <Published Relation>  (173) 
nan

>  <Published Value>  (173) 
nan

>  <Published Units>  (173) 
nan

>  <Canonical Smiles>  (173) 
Fc1cccc(NC(=O)Nc2ccc(cc2)c3ccc4cn[nH]c4c3)c1

>  <Data Validity Comment>  (173) 
nan

>  <Document Journal>  (173) 
nan

>  <Document Year>  (173) 
nan

>  <SRC ID>  (173) 
7

>  <UO Units>  (173) 
UO_0000065

>  <Potential Duplicate>  (173) 
False

>  <Class>  (173) 
0

$$$$

     RDKit          2D

 28 30  0  0  0  0  0  0  0  0999 V2000
   -0.0000  -10.3923    0.0000 O   0  0  0  0  0  0  0  0  0  0  0  0
    0.7500   -9.0933    0.0000 C   0  0  0  0  0  0  0  0  0  0  0  0
    1.5000   -7.7942    0.0000 C   0  0  0  0  0  0  0  0  0  0  0  0
    3.0000   -7.7942    0.0000 O   0  0  0  0  0  0  0  0  0  0  0  0
    0.7500   -6.4952    0.0000 N   0  0  0  0  0  0  0  0  0  0  0  0
    1.5000   -5.1962    0.0000 N   0  0  0  0  0  0  0  0  0  0  0  0
    0.7500   -3.8971    0.0000 C   0  0  0  0  0  0  0  0  0  0  0  0
   -0.7500   -3.8971    0.0000 S   0  0  0  0  0  0  0  0  0  0  0  0
    1.5000   -2.5981    0.0000 N   0  0  0  0  0  0  0  0  0  0  0  0
    0.7500   -1.2990    0.0000 C   0  0  0  0  0  0  0  0  0  0  0  0
    1.5000    0.0000    0.0000 C   0  0  0  0  0  0  0  0  0  0  0  0
    0.7500    1.2990    0.0000 C   0  0  0  0  0  0  0  0  0  0  0  0
   -0.7500    1.2990    0.0000 C   0  0  0  0  0  0  0  0  0  0  0  0
   -1.5000    2.5981    0.0000 F   0  0  0  0  0  0  0  0  0  0  0  0
   -1.5000    0.0000    0.0000 C   0  0  0  0  0  0  0  0  0  0  0  0
   -0.7500   -1.2990    0.0000 C   0  0  0  0  0  0  0  0  0  0  0  0
   -0.5490   -8.3433    0.0000 C   0  0  0  0  0  0  0  0  0  0  0  0
   -0.5490   -6.8433    0.0000 C   0  0  0  0  0  0  0  0  0  0  0  0
   -1.8481   -6.0933    0.0000 C   0  0  0  0  0  0  0  0  0  0  0  0
   -3.1471   -6.8433    0.0000 C   0  0  0  0  0  0  0  0  0  0  0  0
   -3.1471   -8.3433    0.0000 C   0  0  0  0  0  0  0  0  0  0  0  0
   -1.8481   -9.0933    0.0000 C   0  0  0  0  0  0  0  0  0  0  0  0
    2.0490   -9.8433    0.0000 C   0  0  0  0  0  0  0  0  0  0  0  0
    2.0490  -11.3433    0.0000 C   0  0  0  0  0  0  0  0  0  0  0  0
    3.3481  -12.0933    0.0000 C   0  0  0  0  0  0  0  0  0  0  0  0
    4.6471  -11.3433    0.0000 C   0  0  0  0  0  0  0  0  0  0  0  0
    4.6471   -9.8433    0.0000 C   0  0  0  0  0  0  0  0  0  0  0  0
    3.3481   -9.0933    0.0000 C   0  0  0  0  0  0  0  0  0  0  0  0
  1  2  1  0
  2  3  1  0
  3  4  2  0
  3  5  1  0
  5  6  1  0
  6  7  1  0
  7  8  2  0
  7  9  1  0
  9 10  1  0
 10 11  2  0
 11 12  1  0
 12 13  2  0
 13 14  1  0
 13 15  1  0
 15 16  2  0
  2 17  1  0
 17 18  2  0
 18 19  1  0
 19 20  2  0
 20 21  1  0
 21 22  2  0
  2 23  1  0
 23 24  2  0
 24 25  1  0
 25 26  2  0
 26 27  1  0
 27 28  2  0
 16 10  1  0
 22 17  1  0
 28 23  1  0
M  END
>  <Molecule>  (174) 
CHEMBL1975138

>  <Standard Type>  (174) 
Ki

>  <Standard Relation>  (174) 
>

>  <Standard Value>  (174) 
1584.89

>  <Standard Units>  (174) 
nM

>  <pChEMBL Value>  (174) 
nan

>  <Comment>  (174) 
inactive

>  <Compound Key>  (174) 
SID103904449

>  <Assay>  (174) 
CHEMBL1963742

>  <Assay Description>  (174) 
PUBCHEM_BIOASSAY: Navigating the Kinome. (Class of assay: other) Panel member name: JAK3

>  <BAO Format>  (174) 
assay format

>  <Target>  (174) 
CHEMBL2148

>  <Target Pref. Name>  (174) 
Tyrosine-protein kinase JAK3

>  <Target Organism>  (174) 
Homo sapiens

>  <Target Type>  (174) 
SINGLE PROTEIN

>  <Document>  (174) 
CHEMBL1201862

>  <Source>  (174) 
PubChem BioAssays

>  <Max Phase>  (174) 
0

>  <#Ro5 Violations>  (174) 
0

>  <Molecular Weight>  (174) 
395.46

>  <Ligand Efficiency BEI>  (174) 
nan

>  <Ligand Efficiency LE>  (174) 
nan

>  <Ligand Efficiency LLE>  (174) 
nan

>  <Ligand Efficiency SEI>  (174) 
nan

>  <ALogP>  (174) 
3.08

>  <Assay Organism>  (174) 
nan

>  <Assay Tissue ChEMBL ID>  (174) 
nan

>  <Assay Tissue Name>  (174) 
nan

>  <Assay Cell Type>  (174) 
nan

>  <Assay Subcellular Fraction>  (174) 
nan

>  <Organism Tax ID>  (174) 
9606

>  <BAO Format ID>  (174) 
BAO_0000019

>  <Published Type>  (174) 
nan

>  <Published Relation>  (174) 
nan

>  <Published Value>  (174) 
nan

>  <Published Units>  (174) 
nan

>  <Canonical Smiles>  (174) 
OC(C(=O)NNC(=S)Nc1ccc(F)cc1)(c2ccccc2)c3ccccc3

>  <Data Validity Comment>  (174) 
nan

>  <Document Journal>  (174) 
nan

>  <Document Year>  (174) 
nan

>  <SRC ID>  (174) 
7

>  <UO Units>  (174) 
UO_0000065

>  <Potential Duplicate>  (174) 
False

>  <Class>  (174) 
0

$$$$

     RDKit          2D

 38 42  0  0  0  0  0  0  0  0999 V2000
    0.7500   -6.4952    0.0000 C   0  0  0  0  0  0  0  0  0  0  0  0
    1.5000   -5.1962    0.0000 C   0  0  0  0  0  0  0  0  0  0  0  0
    0.7500   -3.8971    0.0000 C   0  0  0  0  0  0  0  0  0  0  0  0
    1.5000   -2.5981    0.0000 N   0  0  0  0  0  0  0  0  0  0  0  0
    3.0000   -2.5981    0.0000 C   0  0  0  0  0  0  0  0  0  0  0  0
    3.8817   -1.3846    0.0000 C   0  0  0  0  0  0  0  0  0  0  0  0
    5.3083   -1.8481    0.0000 C   0  0  0  0  0  0  0  0  0  0  0  0
    5.3083   -3.3481    0.0000 C   0  0  0  0  0  0  0  0  0  0  0  0
    3.8817   -3.8116    0.0000 C   0  0  0  0  0  0  0  0  0  0  0  0
    0.7500   -1.2990    0.0000 C   0  0  0  0  0  0  0  0  0  0  0  0
    1.5000    0.0000    0.0000 N   0  0  0  0  0  0  0  0  0  0  0  0
    0.7500    1.2990    0.0000 C   0  0  0  0  0  0  0  0  0  0  0  0
    1.5000    2.5981    0.0000 N   0  0  0  0  0  0  0  0  0  0  0  0
    3.0000    2.5981    0.0000 C   0  0  0  0  0  0  0  0  0  0  0  0
    3.7500    1.2990    0.0000 C   0  0  0  0  0  0  0  0  0  0  0  0
    5.2500    1.2990    0.0000 C   0  0  0  0  0  0  0  0  0  0  0  0
    6.0000    2.5981    0.0000 C   0  0  0  0  0  0  0  0  0  0  0  0
    5.2500    3.8971    0.0000 C   0  0  0  0  0  0  0  0  0  0  0  0
    3.7500    3.8971    0.0000 C   0  0  0  0  0  0  0  0  0  0  0  0
    3.0000    5.1962    0.0000 O   0  0  0  0  0  0  0  0  0  0  0  0
    3.7500    6.4952    0.0000 C   0  0  0  0  0  0  0  0  0  0  0  0
    7.5000    2.5981    0.0000 C   0  0  0  0  0  0  0  0  0  0  0  0
    8.2500    3.8971    0.0000 O   0  0  0  0  0  0  0  0  0  0  0  0
    8.2500    1.2990    0.0000 N   0  0  0  0  0  0  0  0  0  0  0  0
    9.7500    1.2990    0.0000 C   0  0  0  0  0  0  0  0  0  0  0  0
   10.5000   -0.0000    0.0000 C   0  0  0  0  0  0  0  0  0  0  0  0
   12.0000   -0.0000    0.0000 C   0  0  0  0  0  0  0  0  0  0  0  0
   12.7500    1.2990    0.0000 N   0  0  0  0  0  0  0  0  0  0  0  0
   14.2500    1.2990    0.0000 C   0  0  0  0  0  0  0  0  0  0  0  0
   12.0000    2.5981    0.0000 C   0  0  0  0  0  0  0  0  0  0  0  0
   10.5000    2.5981    0.0000 C   0  0  0  0  0  0  0  0  0  0  0  0
   -0.7500    1.2990    0.0000 N   0  0  0  0  0  0  0  0  0  0  0  0
   -1.5000    0.0000    0.0000 C   0  0  0  0  0  0  0  0  0  0  0  0
   -0.7500   -1.2990    0.0000 C   0  0  0  0  0  0  0  0  0  0  0  0
   -1.5000   -2.5981    0.0000 N   0  0  0  0  0  0  0  0  0  0  0  0
   -3.0000   -2.5981    0.0000 C   0  0  0  0  0  0  0  0  0  0  0  0
   -0.7500   -3.8971    0.0000 C   0  0  0  0  0  0  0  0  0  0  0  0
   -1.5000   -5.1962    0.0000 O   0  0  0  0  0  0  0  0  0  0  0  0
  1  2  1  0
  2  3  1  0
  3  4  1  0
  4  5  1  0
  5  6  1  0
  6  7  1  0
  7  8  1  0
  8  9  1  0
  4 10  1  0
 10 11  2  0
 11 12  1  0
 12 13  1  0
 13 14  1  0
 14 15  2  0
 15 16  1  0
 16 17  2  0
 17 18  1  0
 18 19  2  0
 19 20  1  0
 20 21  1  0
 17 22  1  0
 22 23  2  0
 22 24  1  0
 24 25  1  0
 25 26  1  0
 26 27  1  0
 27 28  1  0
 28 29  1  0
 28 30  1  0
 30 31  1  0
 12 32  2  0
 32 33  1  0
 33 34  2  0
 34 35  1  0
 35 36  1  0
 35 37  1  0
 37 38  2  0
 37  3  1  0
  9  5  1  0
 34 10  1  0
 19 14  1  0
 31 25  1  0
M  END
>  <Molecule>  (175) 
CHEMBL1968380

>  <Standard Type>  (175) 
Ki

>  <Standard Relation>  (175) 
>

>  <Standard Value>  (175) 
1584.89

>  <Standard Units>  (175) 
nM

>  <pChEMBL Value>  (175) 
nan

>  <Comment>  (175) 
inactive

>  <Compound Key>  (175) 
SID103904638

>  <Assay>  (175) 
CHEMBL1963742

>  <Assay Description>  (175) 
PUBCHEM_BIOASSAY: Navigating the Kinome. (Class of assay: other) Panel member name: JAK3

>  <BAO Format>  (175) 
assay format

>  <Target>  (175) 
CHEMBL2148

>  <Target Pref. Name>  (175) 
Tyrosine-protein kinase JAK3

>  <Target Organism>  (175) 
Homo sapiens

>  <Target Type>  (175) 
SINGLE PROTEIN

>  <Document>  (175) 
CHEMBL1201862

>  <Source>  (175) 
PubChem BioAssays

>  <Max Phase>  (175) 
0

>  <#Ro5 Violations>  (175) 
1

>  <Molecular Weight>  (175) 
521.67

>  <Ligand Efficiency BEI>  (175) 
nan

>  <Ligand Efficiency LE>  (175) 
nan

>  <Ligand Efficiency LLE>  (175) 
nan

>  <Ligand Efficiency SEI>  (175) 
nan

>  <ALogP>  (175) 
3.56

>  <Assay Organism>  (175) 
nan

>  <Assay Tissue ChEMBL ID>  (175) 
nan

>  <Assay Tissue Name>  (175) 
nan

>  <Assay Cell Type>  (175) 
nan

>  <Assay Subcellular Fraction>  (175) 
nan

>  <Organism Tax ID>  (175) 
9606

>  <BAO Format ID>  (175) 
BAO_0000019

>  <Published Type>  (175) 
nan

>  <Published Relation>  (175) 
nan

>  <Published Value>  (175) 
nan

>  <Published Units>  (175) 
nan

>  <Canonical Smiles>  (175) 
CCC1N(C2CCCC2)c3nc(Nc4ccc(cc4OC)C(=O)NC5CCN(C)CC5)ncc3N(C)C1=O

>  <Data Validity Comment>  (175) 
nan

>  <Document Journal>  (175) 
nan

>  <Document Year>  (175) 
nan

>  <SRC ID>  (175) 
7

>  <UO Units>  (175) 
UO_0000065

>  <Potential Duplicate>  (175) 
False

>  <Class>  (175) 
0

$$$$

     RDKit          2D

 28 31  0  0  0  0  0  0  0  0999 V2000
   -6.3465   13.8159    0.0000 Cl  0  0  0  0  0  0  0  0  0  0  0  0
   -6.0346   12.3487    0.0000 C   0  0  0  0  0  0  0  0  0  0  0  0
   -4.6080   11.8852    0.0000 C   0  0  0  0  0  0  0  0  0  0  0  0
   -4.2961   10.4179    0.0000 C   0  0  0  0  0  0  0  0  0  0  0  0
   -5.4108    9.4142    0.0000 C   0  0  0  0  0  0  0  0  0  0  0  0
   -6.8374    9.8778    0.0000 C   0  0  0  0  0  0  0  0  0  0  0  0
   -7.9522    8.8741    0.0000 N   0  0  0  0  0  0  0  0  0  0  0  0
   -7.6403    7.4068    0.0000 C   0  0  0  0  0  0  0  0  0  0  0  0
   -6.2137    6.9433    0.0000 O   0  0  0  0  0  0  0  0  0  0  0  0
   -8.7550    6.4031    0.0000 N   0  0  0  0  0  0  0  0  0  0  0  0
   -8.4431    4.9359    0.0000 C   0  0  0  0  0  0  0  0  0  0  0  0
   -7.0728    4.3258    0.0000 N   0  0  0  0  0  0  0  0  0  0  0  0
   -7.2296    2.8340    0.0000 C   0  0  0  0  0  0  0  0  0  0  0  0
   -6.1149    1.8303    0.0000 C   0  0  0  0  0  0  0  0  0  0  0  0
   -4.6883    2.2939    0.0000 C   0  0  0  0  0  0  0  0  0  0  0  0
   -3.5736    1.2902    0.0000 N   0  0  0  0  0  0  0  0  0  0  0  0
   -2.1470    1.7537    0.0000 C   0  0  0  0  0  0  0  0  0  0  0  0
   -1.8351    3.2209    0.0000 N   0  0  0  0  0  0  0  0  0  0  0  0
   -0.4086    3.6844    0.0000 C   0  0  0  0  0  0  0  0  0  0  0  0
    0.7062    2.6807    0.0000 N   0  0  0  0  0  0  0  0  0  0  0  0
    0.3943    1.2135    0.0000 C   0  0  0  0  0  0  0  0  0  0  0  0
    1.2760    0.0000    0.0000 C   0  0  0  0  0  0  0  0  0  0  0  0
    0.3943   -1.2135    0.0000 C   0  0  0  0  0  0  0  0  0  0  0  0
   -1.0323   -0.7500    0.0000 S   0  0  0  0  0  0  0  0  0  0  0  0
   -1.0323    0.7500    0.0000 C   0  0  0  0  0  0  0  0  0  0  0  0
   -8.6968    2.5222    0.0000 C   0  0  0  0  0  0  0  0  0  0  0  0
   -9.4468    3.8212    0.0000 S   0  0  0  0  0  0  0  0  0  0  0  0
   -7.1493   11.3450    0.0000 C   0  0  0  0  0  0  0  0  0  0  0  0
  1  2  1  0
  2  3  2  0
  3  4  1  0
  4  5  2  0
  5  6  1  0
  6  7  1  0
  7  8  1  0
  8  9  2  0
  8 10  1  0
 10 11  1  0
 11 12  2  0
 12 13  1  0
 13 14  1  0
 14 15  1  0
 15 16  1  0
 16 17  1  0
 17 18  2  0
 18 19  1  0
 19 20  2  0
 20 21  1  0
 21 22  1  0
 22 23  2  0
 23 24  1  0
 24 25  1  0
 13 26  2  0
 26 27  1  0
  6 28  2  0
 28  2  1  0
 27 11  1  0
 25 17  1  0
 25 21  2  0
M  END
>  <Molecule>  (176) 
CHEMBL1986177

>  <Standard Type>  (176) 
Ki

>  <Standard Relation>  (176) 
>

>  <Standard Value>  (176) 
5011.87

>  <Standard Units>  (176) 
nM

>  <pChEMBL Value>  (176) 
nan

>  <Comment>  (176) 
inactive

>  <Compound Key>  (176) 
SID103905587

>  <Assay>  (176) 
CHEMBL1963742

>  <Assay Description>  (176) 
PUBCHEM_BIOASSAY: Navigating the Kinome. (Class of assay: other) Panel member name: JAK3

>  <BAO Format>  (176) 
assay format

>  <Target>  (176) 
CHEMBL2148

>  <Target Pref. Name>  (176) 
Tyrosine-protein kinase JAK3

>  <Target Organism>  (176) 
Homo sapiens

>  <Target Type>  (176) 
SINGLE PROTEIN

>  <Document>  (176) 
CHEMBL1201862

>  <Source>  (176) 
PubChem BioAssays

>  <Max Phase>  (176) 
0

>  <#Ro5 Violations>  (176) 
1

>  <Molecular Weight>  (176) 
430.95

>  <Ligand Efficiency BEI>  (176) 
nan

>  <Ligand Efficiency LE>  (176) 
nan

>  <Ligand Efficiency LLE>  (176) 
nan

>  <Ligand Efficiency SEI>  (176) 
nan

>  <ALogP>  (176) 
5.1

>  <Assay Organism>  (176) 
nan

>  <Assay Tissue ChEMBL ID>  (176) 
nan

>  <Assay Tissue Name>  (176) 
nan

>  <Assay Cell Type>  (176) 
nan

>  <Assay Subcellular Fraction>  (176) 
nan

>  <Organism Tax ID>  (176) 
9606

>  <BAO Format ID>  (176) 
BAO_0000019

>  <Published Type>  (176) 
nan

>  <Published Relation>  (176) 
nan

>  <Published Value>  (176) 
nan

>  <Published Units>  (176) 
nan

>  <Canonical Smiles>  (176) 
Clc1cccc(NC(=O)Nc2nc(CCNc3ncnc4ccsc34)cs2)c1

>  <Data Validity Comment>  (176) 
nan

>  <Document Journal>  (176) 
nan

>  <Document Year>  (176) 
nan

>  <SRC ID>  (176) 
7

>  <UO Units>  (176) 
UO_0000065

>  <Potential Duplicate>  (176) 
False

>  <Class>  (176) 
0

$$$$

     RDKit          2D

 23 25  0  0  0  0  0  0  0  0999 V2000
    3.0000    0.0000    0.0000 C   0  0  0  0  0  0  0  0  0  0  0  0
    1.5000    0.0000    0.0000 C   0  0  0  0  0  0  0  0  0  0  0  0
    0.7500   -1.2990    0.0000 C   0  0  0  0  0  0  0  0  0  0  0  0
   -0.7500   -1.2990    0.0000 C   0  0  0  0  0  0  0  0  0  0  0  0
   -1.5000    0.0000    0.0000 C   0  0  0  0  0  0  0  0  0  0  0  0
   -3.0000    0.0000    0.0000 C   0  0  0  0  0  0  0  0  0  0  0  0
   -3.7500    1.2990    0.0000 N   0  0  0  0  0  0  0  0  0  0  0  0
   -5.2500    1.2990    0.0000 C   0  0  0  0  0  0  0  0  0  0  0  0
   -6.3107    2.3597    0.0000 C   0  0  0  0  0  0  0  0  0  0  0  0
   -6.3107    3.8597    0.0000 N   0  0  0  0  0  0  0  0  0  0  0  0
   -5.0116    4.6097    0.0000 C   0  0  0  0  0  0  0  0  0  0  0  0
   -3.7126    3.8597    0.0000 C   0  0  0  0  0  0  0  0  0  0  0  0
   -2.4135    4.6097    0.0000 C   0  0  0  0  0  0  0  0  0  0  0  0
   -2.4135    6.1097    0.0000 N   0  0  0  0  0  0  0  0  0  0  0  0
   -3.7126    6.8597    0.0000 C   0  0  0  0  0  0  0  0  0  0  0  0
   -5.0116    6.1097    0.0000 C   0  0  0  0  0  0  0  0  0  0  0  0
   -7.3713    1.2990    0.0000 C   0  0  0  0  0  0  0  0  0  0  0  0
   -8.8713    1.2990    0.0000 O   0  0  0  0  0  0  0  0  0  0  0  0
   -6.3107    0.2384    0.0000 C   0  0  0  0  0  0  0  0  0  0  0  0
   -6.3107   -1.2616    0.0000 O   0  0  0  0  0  0  0  0  0  0  0  0
   -0.7500    1.2990    0.0000 C   0  0  0  0  0  0  0  0  0  0  0  0
    0.7500    1.2990    0.0000 C   0  0  0  0  0  0  0  0  0  0  0  0
    1.5000    2.5981    0.0000 C   0  0  0  0  0  0  0  0  0  0  0  0
  1  2  1  0
  2  3  2  0
  3  4  1  0
  4  5  2  0
  5  6  1  0
  6  7  1  0
  7  8  1  0
  8  9  2  0
  9 10  1  0
 10 11  1  0
 11 12  2  0
 12 13  1  0
 13 14  2  0
 14 15  1  0
 15 16  2  0
  9 17  1  0
 17 18  2  0
 17 19  1  0
 19 20  2  0
  5 21  1  0
 21 22  2  0
 22 23  1  0
 22  2  1  0
 19  8  1  0
 16 11  1  0
M  END
>  <Molecule>  (177) 
CHEMBL1983449

>  <Standard Type>  (177) 
Ki

>  <Standard Relation>  (177) 
>

>  <Standard Value>  (177) 
1584.89

>  <Standard Units>  (177) 
nM

>  <pChEMBL Value>  (177) 
nan

>  <Comment>  (177) 
inactive

>  <Compound Key>  (177) 
SID103904951

>  <Assay>  (177) 
CHEMBL1963742

>  <Assay Description>  (177) 
PUBCHEM_BIOASSAY: Navigating the Kinome. (Class of assay: other) Panel member name: JAK3

>  <BAO Format>  (177) 
assay format

>  <Target>  (177) 
CHEMBL2148

>  <Target Pref. Name>  (177) 
Tyrosine-protein kinase JAK3

>  <Target Organism>  (177) 
Homo sapiens

>  <Target Type>  (177) 
SINGLE PROTEIN

>  <Document>  (177) 
CHEMBL1201862

>  <Source>  (177) 
PubChem BioAssays

>  <Max Phase>  (177) 
0

>  <#Ro5 Violations>  (177) 
0

>  <Molecular Weight>  (177) 
307.35

>  <Ligand Efficiency BEI>  (177) 
nan

>  <Ligand Efficiency LE>  (177) 
nan

>  <Ligand Efficiency LLE>  (177) 
nan

>  <Ligand Efficiency SEI>  (177) 
nan

>  <ALogP>  (177) 
2.65

>  <Assay Organism>  (177) 
nan

>  <Assay Tissue ChEMBL ID>  (177) 
nan

>  <Assay Tissue Name>  (177) 
nan

>  <Assay Cell Type>  (177) 
nan

>  <Assay Subcellular Fraction>  (177) 
nan

>  <Organism Tax ID>  (177) 
9606

>  <BAO Format ID>  (177) 
BAO_0000019

>  <Published Type>  (177) 
nan

>  <Published Relation>  (177) 
nan

>  <Published Value>  (177) 
nan

>  <Published Units>  (177) 
nan

>  <Canonical Smiles>  (177) 
Cc1ccc(CNC2=C(Nc3ccncc3)C(=O)C2=O)cc1C

>  <Data Validity Comment>  (177) 
nan

>  <Document Journal>  (177) 
nan

>  <Document Year>  (177) 
nan

>  <SRC ID>  (177) 
7

>  <UO Units>  (177) 
UO_0000065

>  <Potential Duplicate>  (177) 
False

>  <Class>  (177) 
0

$$$$

     RDKit          2D

 12 14  0  0  0  0  0  0  0  0999 V2000
    1.2135   -2.7256    0.0000 C   0  0  0  0  0  0  0  0  0  0  0  0
    0.7500   -1.2990    0.0000 C   0  0  0  0  0  0  0  0  0  0  0  0
    1.5000    0.0000    0.0000 C   0  0  0  0  0  0  0  0  0  0  0  0
    0.7500    1.2990    0.0000 C   0  0  0  0  0  0  0  0  0  0  0  0
   -0.7500    1.2990    0.0000 C   0  0  0  0  0  0  0  0  0  0  0  0
   -1.5000    0.0000    0.0000 C   0  0  0  0  0  0  0  0  0  0  0  0
   -0.7500   -1.2990    0.0000 C   0  0  0  0  0  0  0  0  0  0  0  0
   -1.2135   -2.7256    0.0000 C   0  0  0  0  0  0  0  0  0  0  0  0
   -2.4271   -3.6073    0.0000 N   0  0  0  0  0  0  0  0  0  0  0  0
   -1.9635   -5.0339    0.0000 N   0  0  0  0  0  0  0  0  0  0  0  0
   -0.4635   -5.0339    0.0000 C   0  0  0  0  0  0  0  0  0  0  0  0
   -0.0000   -3.6073    0.0000 C   0  0  0  0  0  0  0  0  0  0  0  0
  1  2  1  0
  2  3  2  0
  3  4  1  0
  4  5  2  0
  5  6  1  0
  6  7  2  0
  7  8  1  0
  8  9  2  0
  9 10  1  0
 10 11  1  0
 11 12  2  0
 12  1  1  0
  7  2  1  0
 12  8  1  0
M  END
>  <Molecule>  (178) 
CHEMBL1989423

>  <Standard Type>  (178) 
Ki

>  <Standard Relation>  (178) 
>

>  <Standard Value>  (178) 
15848.93

>  <Standard Units>  (178) 
nM

>  <pChEMBL Value>  (178) 
nan

>  <Comment>  (178) 
inactive

>  <Compound Key>  (178) 
SID103905447

>  <Assay>  (178) 
CHEMBL1963742

>  <Assay Description>  (178) 
PUBCHEM_BIOASSAY: Navigating the Kinome. (Class of assay: other) Panel member name: JAK3

>  <BAO Format>  (178) 
assay format

>  <Target>  (178) 
CHEMBL2148

>  <Target Pref. Name>  (178) 
Tyrosine-protein kinase JAK3

>  <Target Organism>  (178) 
Homo sapiens

>  <Target Type>  (178) 
SINGLE PROTEIN

>  <Document>  (178) 
CHEMBL1201862

>  <Source>  (178) 
PubChem BioAssays

>  <Max Phase>  (178) 
0

>  <#Ro5 Violations>  (178) 
0

>  <Molecular Weight>  (178) 
156.19

>  <Ligand Efficiency BEI>  (178) 
nan

>  <Ligand Efficiency LE>  (178) 
nan

>  <Ligand Efficiency LLE>  (178) 
nan

>  <Ligand Efficiency SEI>  (178) 
nan

>  <ALogP>  (178) 
1.98

>  <Assay Organism>  (178) 
nan

>  <Assay Tissue ChEMBL ID>  (178) 
nan

>  <Assay Tissue Name>  (178) 
nan

>  <Assay Cell Type>  (178) 
nan

>  <Assay Subcellular Fraction>  (178) 
nan

>  <Organism Tax ID>  (178) 
9606

>  <BAO Format ID>  (178) 
BAO_0000019

>  <Published Type>  (178) 
nan

>  <Published Relation>  (178) 
nan

>  <Published Value>  (178) 
nan

>  <Published Units>  (178) 
nan

>  <Canonical Smiles>  (178) 
C1c2ccccc2c3n[nH]cc13

>  <Data Validity Comment>  (178) 
nan

>  <Document Journal>  (178) 
nan

>  <Document Year>  (178) 
nan

>  <SRC ID>  (178) 
7

>  <UO Units>  (178) 
UO_0000065

>  <Potential Duplicate>  (178) 
False

>  <Class>  (178) 
0

$$$$

     RDKit          2D

 32 37  0  0  0  0  0  0  0  0999 V2000
   -6.5218   -0.9664    0.0000 O   0  0  0  0  0  0  0  0  0  0  0  0
   -5.3083   -1.8481    0.0000 C   0  0  0  0  0  0  0  0  0  0  0  0
   -5.3083   -3.3481    0.0000 N   0  0  0  0  0  0  0  0  0  0  0  0
   -3.8817   -3.8116    0.0000 C   0  0  0  0  0  0  0  0  0  0  0  0
   -3.4182   -5.2382    0.0000 O   0  0  0  0  0  0  0  0  0  0  0  0
   -3.0000   -2.5981    0.0000 C   0  0  0  0  0  0  0  0  0  0  0  0
   -3.8817   -1.3846    0.0000 C   0  0  0  0  0  0  0  0  0  0  0  0
   -3.4182    0.0420    0.0000 C   0  0  0  0  0  0  0  0  0  0  0  0
   -1.9916    0.5056    0.0000 C   0  0  0  0  0  0  0  0  0  0  0  0
   -1.9916    2.0056    0.0000 N   0  0  0  0  0  0  0  0  0  0  0  0
   -3.4182    2.4691    0.0000 C   0  0  0  0  0  0  0  0  0  0  0  0
   -4.0283    3.8394    0.0000 C   0  0  0  0  0  0  0  0  0  0  0  0
   -5.5200    3.9962    0.0000 C   0  0  0  0  0  0  0  0  0  0  0  0
   -6.4017    2.7827    0.0000 C   0  0  0  0  0  0  0  0  0  0  0  0
   -5.7916    1.4124    0.0000 C   0  0  0  0  0  0  0  0  0  0  0  0
   -4.2998    1.2556    0.0000 C   0  0  0  0  0  0  0  0  0  0  0  0
   -1.5000   -2.5981    0.0000 C   0  0  0  0  0  0  0  0  0  0  0  0
   -0.7500   -3.8971    0.0000 N   0  0  0  0  0  0  0  0  0  0  0  0
    0.7500   -3.8971    0.0000 C   0  0  0  0  0  0  0  0  0  0  0  0
    1.5000   -2.5981    0.0000 N   0  0  0  0  0  0  0  0  0  0  0  0
    0.7500   -1.2990    0.0000 C   0  0  0  0  0  0  0  0  0  0  0  0
    1.5000    0.0000    0.0000 C   0  0  0  0  0  0  0  0  0  0  0  0
    0.7500    1.2990    0.0000 C   0  0  0  0  0  0  0  0  0  0  0  0
   -0.7500    1.2990    0.0000 C   0  0  0  0  0  0  0  0  0  0  0  0
   -1.5000    0.0000    0.0000 C   0  0  0  0  0  0  0  0  0  0  0  0
   -0.7500   -1.2990    0.0000 C   0  0  0  0  0  0  0  0  0  0  0  0
    1.5000   -5.1962    0.0000 N   0  0  0  0  0  0  0  0  0  0  0  0
    0.7500   -6.4952    0.0000 C   0  0  0  0  0  0  0  0  0  0  0  0
    1.5000   -7.7942    0.0000 C   0  0  0  0  0  0  0  0  0  0  0  0
    3.0000   -7.7942    0.0000 N   0  0  0  0  0  0  0  0  0  0  0  0
    3.7500   -6.4952    0.0000 C   0  0  0  0  0  0  0  0  0  0  0  0
    3.0000   -5.1962    0.0000 C   0  0  0  0  0  0  0  0  0  0  0  0
  1  2  2  0
  2  3  1  0
  3  4  1  0
  4  5  2  0
  4  6  1  0
  6  7  2  0
  7  8  1  0
  8  9  2  0
  9 10  1  0
 10 11  1  0
 11 12  2  0
 12 13  1  0
 13 14  2  0
 14 15  1  0
 15 16  2  0
  6 17  1  0
 17 18  2  0
 18 19  1  0
 19 20  2  0
 20 21  1  0
 21 22  2  0
 22 23  1  0
 23 24  2  0
 24 25  1  0
 25 26  2  0
 19 27  1  0
 27 28  1  0
 28 29  1  0
 29 30  1  0
 30 31  1  0
 31 32  1  0
  7  2  1  0
 16  8  1  0
 16 11  1  0
 26 17  1  0
 26 21  1  0
 32 27  1  0
M  END
>  <Molecule>  (179) 
CHEMBL1996510

>  <Standard Type>  (179) 
Ki

>  <Standard Relation>  (179) 
=

>  <Standard Value>  (179) 
1258.93

>  <Standard Units>  (179) 
nM

>  <pChEMBL Value>  (179) 
5.9

>  <Comment>  (179) 
active

>  <Compound Key>  (179) 
SID103905057

>  <Assay>  (179) 
CHEMBL1963742

>  <Assay Description>  (179) 
PUBCHEM_BIOASSAY: Navigating the Kinome. (Class of assay: other) Panel member name: JAK3

>  <BAO Format>  (179) 
assay format

>  <Target>  (179) 
CHEMBL2148

>  <Target Pref. Name>  (179) 
Tyrosine-protein kinase JAK3

>  <Target Organism>  (179) 
Homo sapiens

>  <Target Type>  (179) 
SINGLE PROTEIN

>  <Document>  (179) 
CHEMBL1201862

>  <Source>  (179) 
PubChem BioAssays

>  <Max Phase>  (179) 
0

>  <#Ro5 Violations>  (179) 
0

>  <Molecular Weight>  (179) 
424.46

>  <Ligand Efficiency BEI>  (179) 
nan

>  <Ligand Efficiency LE>  (179) 
nan

>  <Ligand Efficiency LLE>  (179) 
nan

>  <Ligand Efficiency SEI>  (179) 
nan

>  <ALogP>  (179) 
2.09

>  <Assay Organism>  (179) 
nan

>  <Assay Tissue ChEMBL ID>  (179) 
nan

>  <Assay Tissue Name>  (179) 
nan

>  <Assay Cell Type>  (179) 
nan

>  <Assay Subcellular Fraction>  (179) 
nan

>  <Organism Tax ID>  (179) 
9606

>  <BAO Format ID>  (179) 
BAO_0000019

>  <Published Type>  (179) 
nan

>  <Published Relation>  (179) 
nan

>  <Published Value>  (179) 
nan

>  <Published Units>  (179) 
nan

>  <Canonical Smiles>  (179) 
O=C1NC(=O)C(=C1c2c[nH]c3ccccc23)c4nc(nc5ccccc45)N6CCNCC6

>  <Data Validity Comment>  (179) 
nan

>  <Document Journal>  (179) 
nan

>  <Document Year>  (179) 
nan

>  <SRC ID>  (179) 
7

>  <UO Units>  (179) 
UO_0000065

>  <Potential Duplicate>  (179) 
False

>  <Class>  (179) 
1

$$$$

     RDKit          2D

 36 40  0  0  0  0  0  0  0  0999 V2000
    3.7500   -1.2990    0.0000 C   0  0  0  0  0  0  0  0  0  0  0  0
    3.0000    0.0000    0.0000 N   0  0  0  0  0  0  0  0  0  0  0  0
    3.7500    1.2990    0.0000 C   0  0  0  0  0  0  0  0  0  0  0  0
    1.5000    0.0000    0.0000 C   0  0  0  0  0  0  0  0  0  0  0  0
    0.7500   -1.2990    0.0000 C   0  0  0  0  0  0  0  0  0  0  0  0
   -0.7500   -1.2990    0.0000 C   0  0  0  0  0  0  0  0  0  0  0  0
   -1.5000    0.0000    0.0000 C   0  0  0  0  0  0  0  0  0  0  0  0
   -0.7500    1.2990    0.0000 C   0  0  0  0  0  0  0  0  0  0  0  0
   -1.5000    2.5981    0.0000 C   0  0  0  0  0  0  0  0  0  0  0  0
   -0.7500    3.8971    0.0000 C   0  0  0  0  0  0  0  0  0  0  0  0
    0.7500    3.8971    0.0000 C   0  0  0  0  0  0  0  0  0  0  0  0
    1.5000    2.5981    0.0000 C   0  0  0  0  0  0  0  0  0  0  0  0
    0.7500    1.2990    0.0000 C   0  0  0  0  0  0  0  0  0  0  0  0
   -3.0000    2.5981    0.0000 S   0  0  0  0  0  0  0  0  0  0  0  0
   -3.0000    4.0981    0.0000 O   0  0  0  0  0  0  0  0  0  0  0  0
   -3.0000    1.0981    0.0000 O   0  0  0  0  0  0  0  0  0  0  0  0
   -4.5000    2.5981    0.0000 N   0  0  0  0  0  0  0  0  0  0  0  0
   -5.2500    1.2990    0.0000 C   0  0  0  0  0  0  0  0  0  0  0  0
   -6.7500    1.2990    0.0000 C   0  0  0  0  0  0  0  0  0  0  0  0
   -7.5000   -0.0000    0.0000 N   0  0  0  0  0  0  0  0  0  0  0  0
   -5.2500    3.8971    0.0000 C   0  0  0  0  0  0  0  0  0  0  0  0
   -4.5000    5.1962    0.0000 C   0  0  0  0  0  0  0  0  0  0  0  0
   -5.2500    6.4952    0.0000 N   0  0  0  0  0  0  0  0  0  0  0  0
   -6.7500    6.4952    0.0000 C   0  0  0  0  0  0  0  0  0  0  0  0
   -7.5000    5.1962    0.0000 C   0  0  0  0  0  0  0  0  0  0  0  0
   -6.7500    3.8971    0.0000 C   0  0  0  0  0  0  0  0  0  0  0  0
   -9.0000    5.1962    0.0000 C   0  0  0  0  0  0  0  0  0  0  0  0
   -9.7500    3.8971    0.0000 C   0  0  0  0  0  0  0  0  0  0  0  0
  -11.2500    3.8971    0.0000 C   0  0  0  0  0  0  0  0  0  0  0  0
  -12.0000    5.1962    0.0000 C   0  0  0  0  0  0  0  0  0  0  0  0
  -13.5000    5.1962    0.0000 C   0  0  0  0  0  0  0  0  0  0  0  0
  -14.2500    6.4952    0.0000 N   0  0  0  0  0  0  0  0  0  0  0  0
  -13.5000    7.7942    0.0000 C   0  0  0  0  0  0  0  0  0  0  0  0
  -12.0000    7.7942    0.0000 C   0  0  0  0  0  0  0  0  0  0  0  0
  -11.2500    6.4952    0.0000 C   0  0  0  0  0  0  0  0  0  0  0  0
   -9.7500    6.4952    0.0000 C   0  0  0  0  0  0  0  0  0  0  0  0
  1  2  1  0
  2  3  1  0
  2  4  1  0
  4  5  2  0
  5  6  1  0
  6  7  2  0
  7  8  1  0
  8  9  2  0
  9 10  1  0
 10 11  2  0
 11 12  1  0
 12 13  2  0
  9 14  1  0
 14 15  2  0
 14 16  2  0
 14 17  1  0
 17 18  1  0
 18 19  1  0
 19 20  1  0
 17 21  1  0
 21 22  2  0
 22 23  1  0
 23 24  2  0
 24 25  1  0
 25 26  2  0
 25 27  1  0
 27 28  2  0
 28 29  1  0
 29 30  2  0
 30 31  1  0
 31 32  2  0
 32 33  1  0
 33 34  2  0
 34 35  1  0
 35 36  2  0
 13  4  1  0
 13  8  1  0
 26 21  1  0
 36 27  1  0
 35 30  1  0
M  END
>  <Molecule>  (180) 
CHEMBL1967544

>  <Standard Type>  (180) 
Ki

>  <Standard Relation>  (180) 
>

>  <Standard Value>  (180) 
1584.89

>  <Standard Units>  (180) 
nM

>  <pChEMBL Value>  (180) 
nan

>  <Comment>  (180) 
inactive

>  <Compound Key>  (180) 
SID103905145

>  <Assay>  (180) 
CHEMBL1963742

>  <Assay Description>  (180) 
PUBCHEM_BIOASSAY: Navigating the Kinome. (Class of assay: other) Panel member name: JAK3

>  <BAO Format>  (180) 
assay format

>  <Target>  (180) 
CHEMBL2148

>  <Target Pref. Name>  (180) 
Tyrosine-protein kinase JAK3

>  <Target Organism>  (180) 
Homo sapiens

>  <Target Type>  (180) 
SINGLE PROTEIN

>  <Document>  (180) 
CHEMBL1201862

>  <Source>  (180) 
PubChem BioAssays

>  <Max Phase>  (180) 
0

>  <#Ro5 Violations>  (180) 
0

>  <Molecular Weight>  (180) 
497.62

>  <Ligand Efficiency BEI>  (180) 
nan

>  <Ligand Efficiency LE>  (180) 
nan

>  <Ligand Efficiency LLE>  (180) 
nan

>  <Ligand Efficiency SEI>  (180) 
nan

>  <ALogP>  (180) 
4.67

>  <Assay Organism>  (180) 
nan

>  <Assay Tissue ChEMBL ID>  (180) 
nan

>  <Assay Tissue Name>  (180) 
nan

>  <Assay Cell Type>  (180) 
nan

>  <Assay Subcellular Fraction>  (180) 
nan

>  <Organism Tax ID>  (180) 
9606

>  <BAO Format ID>  (180) 
BAO_0000019

>  <Published Type>  (180) 
nan

>  <Published Relation>  (180) 
nan

>  <Published Value>  (180) 
nan

>  <Published Units>  (180) 
nan

>  <Canonical Smiles>  (180) 
CN(C)c1cccc2c(cccc12)S(=O)(=O)N(CCN)c3cncc(c3)c4ccc5cnccc5c4

>  <Data Validity Comment>  (180) 
nan

>  <Document Journal>  (180) 
nan

>  <Document Year>  (180) 
nan

>  <SRC ID>  (180) 
7

>  <UO Units>  (180) 
UO_0000065

>  <Potential Duplicate>  (180) 
False

>  <Class>  (180) 
0

$$$$

     RDKit          2D

 23 25  0  0  0  0  0  0  0  0999 V2000
    3.7500   -1.2990    0.0000 C   0  0  0  0  0  0  0  0  0  0  0  0
    3.0000    0.0000    0.0000 O   0  0  0  0  0  0  0  0  0  0  0  0
    1.5000    0.0000    0.0000 C   0  0  0  0  0  0  0  0  0  0  0  0
    0.7500   -1.2990    0.0000 C   0  0  0  0  0  0  0  0  0  0  0  0
   -0.7500   -1.2990    0.0000 C   0  0  0  0  0  0  0  0  0  0  0  0
   -1.5000    0.0000    0.0000 C   0  0  0  0  0  0  0  0  0  0  0  0
   -3.0000    0.0000    0.0000 C   0  0  0  0  0  0  0  0  0  0  0  0
   -3.7500    1.2990    0.0000 C   0  0  0  0  0  0  0  0  0  0  0  0
   -5.2418    1.4558    0.0000 S   0  0  0  0  0  0  0  0  0  0  0  0
   -5.5537    2.9231    0.0000 C   0  0  0  0  0  0  0  0  0  0  0  0
   -6.9240    3.5332    0.0000 N   0  0  0  0  0  0  0  0  0  0  0  0
   -7.0808    5.0249    0.0000 C   0  0  0  0  0  0  0  0  0  0  0  0
   -5.8672    5.9066    0.0000 C   0  0  0  0  0  0  0  0  0  0  0  0
   -6.0240    7.3984    0.0000 C   0  0  0  0  0  0  0  0  0  0  0  0
   -7.3943    8.0085    0.0000 C   0  0  0  0  0  0  0  0  0  0  0  0
   -8.6079    7.1268    0.0000 C   0  0  0  0  0  0  0  0  0  0  0  0
   -8.4511    5.6350    0.0000 C   0  0  0  0  0  0  0  0  0  0  0  0
   -4.2546    3.6731    0.0000 N   0  0  0  0  0  0  0  0  0  0  0  0
   -3.1399    2.6694    0.0000 C   0  0  0  0  0  0  0  0  0  0  0  0
   -1.6727    2.9812    0.0000 O   0  0  0  0  0  0  0  0  0  0  0  0
   -0.7500    1.2990    0.0000 C   0  0  0  0  0  0  0  0  0  0  0  0
    0.7500    1.2990    0.0000 C   0  0  0  0  0  0  0  0  0  0  0  0
    1.5000    2.5981    0.0000 O   0  0  0  0  0  0  0  0  0  0  0  0
  1  2  1  0
  2  3  1  0
  3  4  2  0
  4  5  1  0
  5  6  2  0
  6  7  1  0
  7  8  2  3
  8  9  1  0
  9 10  1  0
 10 11  2  3
 11 12  1  0
 12 13  2  0
 13 14  1  0
 14 15  2  0
 15 16  1  0
 16 17  2  0
 10 18  1  0
 18 19  1  0
 19 20  2  0
  6 21  1  0
 21 22  2  0
 22 23  1  0
 22  3  1  0
 19  8  1  0
 17 12  1  0
M  END
>  <Molecule>  (181) 
CHEMBL2000354

>  <Standard Type>  (181) 
Ki

>  <Standard Relation>  (181) 
>

>  <Standard Value>  (181) 
1584.89

>  <Standard Units>  (181) 
nM

>  <pChEMBL Value>  (181) 
nan

>  <Comment>  (181) 
inactive

>  <Compound Key>  (181) 
SID103905208

>  <Assay>  (181) 
CHEMBL1963742

>  <Assay Description>  (181) 
PUBCHEM_BIOASSAY: Navigating the Kinome. (Class of assay: other) Panel member name: JAK3

>  <BAO Format>  (181) 
assay format

>  <Target>  (181) 
CHEMBL2148

>  <Target Pref. Name>  (181) 
Tyrosine-protein kinase JAK3

>  <Target Organism>  (181) 
Homo sapiens

>  <Target Type>  (181) 
SINGLE PROTEIN

>  <Document>  (181) 
CHEMBL1201862

>  <Source>  (181) 
PubChem BioAssays

>  <Max Phase>  (181) 
0

>  <#Ro5 Violations>  (181) 
0

>  <Molecular Weight>  (181) 
326.38

>  <Ligand Efficiency BEI>  (181) 
nan

>  <Ligand Efficiency LE>  (181) 
nan

>  <Ligand Efficiency LLE>  (181) 
nan

>  <Ligand Efficiency SEI>  (181) 
nan

>  <ALogP>  (181) 
3.29

>  <Assay Organism>  (181) 
nan

>  <Assay Tissue ChEMBL ID>  (181) 
nan

>  <Assay Tissue Name>  (181) 
nan

>  <Assay Cell Type>  (181) 
nan

>  <Assay Subcellular Fraction>  (181) 
nan

>  <Organism Tax ID>  (181) 
9606

>  <BAO Format ID>  (181) 
BAO_0000019

>  <Published Type>  (181) 
nan

>  <Published Relation>  (181) 
nan

>  <Published Value>  (181) 
nan

>  <Published Units>  (181) 
nan

>  <Canonical Smiles>  (181) 
COc1ccc(C=C2SC(=Nc3ccccc3)NC2=O)cc1O

>  <Data Validity Comment>  (181) 
nan

>  <Document Journal>  (181) 
nan

>  <Document Year>  (181) 
nan

>  <SRC ID>  (181) 
7

>  <UO Units>  (181) 
UO_0000065

>  <Potential Duplicate>  (181) 
False

>  <Class>  (181) 
0

$$$$

     RDKit          2D

 28 31  0  0  0  0  0  0  0  0999 V2000
   -3.5736    1.2902    0.0000 C   0  0  0  0  0  0  0  0  0  0  0  0
   -2.1470    1.7537    0.0000 C   0  0  0  0  0  0  0  0  0  0  0  0
   -1.8351    3.2209    0.0000 C   0  0  0  0  0  0  0  0  0  0  0  0
   -0.4086    3.6844    0.0000 C   0  0  0  0  0  0  0  0  0  0  0  0
    0.7062    2.6807    0.0000 C   0  0  0  0  0  0  0  0  0  0  0  0
    2.1328    3.1443    0.0000 C   0  0  0  0  0  0  0  0  0  0  0  0
    3.2475    2.1406    0.0000 C   0  0  0  0  0  0  0  0  0  0  0  0
    4.6741    2.6041    0.0000 C   0  0  0  0  0  0  0  0  0  0  0  0
    4.9859    4.0713    0.0000 C   0  0  0  0  0  0  0  0  0  0  0  0
    6.4125    4.5348    0.0000 N   0  0  0  0  0  0  0  0  0  0  0  0
    7.5272    3.5312    0.0000 C   0  0  0  0  0  0  0  0  0  0  0  0
    7.2154    2.0639    0.0000 O   0  0  0  0  0  0  0  0  0  0  0  0
    8.9538    3.9947    0.0000 N   0  0  0  0  0  0  0  0  0  0  0  0
   10.0685    2.9910    0.0000 C   0  0  0  0  0  0  0  0  0  0  0  0
    9.7567    1.5238    0.0000 C   0  0  0  0  0  0  0  0  0  0  0  0
   10.8714    0.5201    0.0000 C   0  0  0  0  0  0  0  0  0  0  0  0
   12.2980    0.9836    0.0000 C   0  0  0  0  0  0  0  0  0  0  0  0
   12.6098    2.4508    0.0000 C   0  0  0  0  0  0  0  0  0  0  0  0
   14.0364    2.9143    0.0000 Br  0  0  0  0  0  0  0  0  0  0  0  0
   11.4951    3.4545    0.0000 C   0  0  0  0  0  0  0  0  0  0  0  0
    3.8712    5.0750    0.0000 C   0  0  0  0  0  0  0  0  0  0  0  0
    2.4446    4.6115    0.0000 C   0  0  0  0  0  0  0  0  0  0  0  0
    0.3943    1.2135    0.0000 C   0  0  0  0  0  0  0  0  0  0  0  0
    1.2760    0.0000    0.0000 C   0  0  0  0  0  0  0  0  0  0  0  0
    2.7760    0.0000    0.0000 N   0  0  0  0  0  0  0  0  0  0  0  0
    0.3943   -1.2135    0.0000 N   0  0  0  0  0  0  0  0  0  0  0  0
   -1.0323   -0.7500    0.0000 N   0  0  0  0  0  0  0  0  0  0  0  0
   -1.0323    0.7500    0.0000 C   0  0  0  0  0  0  0  0  0  0  0  0
  1  2  1  0
  2  3  2  0
  3  4  1  0
  4  5  2  0
  5  6  1  0
  6  7  2  0
  7  8  1  0
  8  9  2  0
  9 10  1  0
 10 11  1  0
 11 12  2  0
 11 13  1  0
 13 14  1  0
 14 15  2  0
 15 16  1  0
 16 17  2  0
 17 18  1  0
 18 19  1  0
 18 20  2  0
  9 21  1  0
 21 22  2  0
  5 23  1  0
 23 24  1  0
 24 25  1  0
 24 26  2  0
 26 27  1  0
 27 28  1  0
 28  2  1  0
 22  6  1  0
 20 14  1  0
 28 23  2  0
M  END
>  <Molecule>  (182) 
CHEMBL1973937

>  <Standard Type>  (182) 
Ki

>  <Standard Relation>  (182) 
>

>  <Standard Value>  (182) 
1584.89

>  <Standard Units>  (182) 
nM

>  <pChEMBL Value>  (182) 
nan

>  <Comment>  (182) 
inactive

>  <Compound Key>  (182) 
SID103904334

>  <Assay>  (182) 
CHEMBL1963742

>  <Assay Description>  (182) 
PUBCHEM_BIOASSAY: Navigating the Kinome. (Class of assay: other) Panel member name: JAK3

>  <BAO Format>  (182) 
assay format

>  <Target>  (182) 
CHEMBL2148

>  <Target Pref. Name>  (182) 
Tyrosine-protein kinase JAK3

>  <Target Organism>  (182) 
Homo sapiens

>  <Target Type>  (182) 
SINGLE PROTEIN

>  <Document>  (182) 
CHEMBL1201862

>  <Source>  (182) 
PubChem BioAssays

>  <Max Phase>  (182) 
0

>  <#Ro5 Violations>  (182) 
1

>  <Molecular Weight>  (182) 
436.31

>  <Ligand Efficiency BEI>  (182) 
nan

>  <Ligand Efficiency LE>  (182) 
nan

>  <Ligand Efficiency LLE>  (182) 
nan

>  <Ligand Efficiency SEI>  (182) 
nan

>  <ALogP>  (182) 
5.53

>  <Assay Organism>  (182) 
nan

>  <Assay Tissue ChEMBL ID>  (182) 
nan

>  <Assay Tissue Name>  (182) 
nan

>  <Assay Cell Type>  (182) 
nan

>  <Assay Subcellular Fraction>  (182) 
nan

>  <Organism Tax ID>  (182) 
9606

>  <BAO Format ID>  (182) 
BAO_0000019

>  <Published Type>  (182) 
nan

>  <Published Relation>  (182) 
nan

>  <Published Value>  (182) 
nan

>  <Published Units>  (182) 
nan

>  <Canonical Smiles>  (182) 
Cc1ccc(c2ccc(NC(=O)Nc3cccc(Br)c3)cc2)c4c(N)n[nH]c14

>  <Data Validity Comment>  (182) 
nan

>  <Document Journal>  (182) 
nan

>  <Document Year>  (182) 
nan

>  <SRC ID>  (182) 
7

>  <UO Units>  (182) 
UO_0000065

>  <Potential Duplicate>  (182) 
False

>  <Class>  (182) 
0

$$$$

     RDKit          2D

 20 22  0  0  0  0  0  0  0  0999 V2000
   -3.0000   -5.1962    0.0000 O   0  0  0  0  0  0  0  0  0  0  0  0
   -3.7500   -3.8971    0.0000 C   0  0  0  0  0  0  0  0  0  0  0  0
   -5.2500   -3.8971    0.0000 N   0  0  0  0  0  0  0  0  0  0  0  0
   -6.0000   -5.1962    0.0000 C   0  0  0  0  0  0  0  0  0  0  0  0
   -7.5000   -5.1962    0.0000 C   0  0  0  0  0  0  0  0  0  0  0  0
   -8.2500   -6.4952    0.0000 N   0  0  0  0  0  0  0  0  0  0  0  0
   -7.5000   -7.7942    0.0000 C   0  0  0  0  0  0  0  0  0  0  0  0
   -6.0000   -7.7942    0.0000 C   0  0  0  0  0  0  0  0  0  0  0  0
   -5.2500   -6.4952    0.0000 N   0  0  0  0  0  0  0  0  0  0  0  0
   -3.0000   -2.5981    0.0000 N   0  0  0  0  0  0  0  0  0  0  0  0
   -1.5000   -2.5981    0.0000 C   0  0  0  0  0  0  0  0  0  0  0  0
   -0.7500   -3.8971    0.0000 C   0  0  0  0  0  0  0  0  0  0  0  0
    0.7500   -3.8971    0.0000 C   0  0  0  0  0  0  0  0  0  0  0  0
    1.5000   -2.5981    0.0000 N   0  0  0  0  0  0  0  0  0  0  0  0
    0.7500   -1.2990    0.0000 C   0  0  0  0  0  0  0  0  0  0  0  0
    1.5000    0.0000    0.0000 C   0  0  0  0  0  0  0  0  0  0  0  0
    0.7500    1.2990    0.0000 C   0  0  0  0  0  0  0  0  0  0  0  0
   -0.7500    1.2990    0.0000 C   0  0  0  0  0  0  0  0  0  0  0  0
   -1.5000    0.0000    0.0000 C   0  0  0  0  0  0  0  0  0  0  0  0
   -0.7500   -1.2990    0.0000 C   0  0  0  0  0  0  0  0  0  0  0  0
  1  2  2  0
  2  3  1  0
  3  4  1  0
  4  5  2  0
  5  6  1  0
  6  7  2  0
  7  8  1  0
  8  9  2  0
  2 10  1  0
 10 11  1  0
 11 12  2  0
 12 13  1  0
 13 14  2  0
 14 15  1  0
 15 16  2  0
 16 17  1  0
 17 18  2  0
 18 19  1  0
 19 20  2  0
  9  4  1  0
 20 11  1  0
 20 15  1  0
M  END
>  <Molecule>  (183) 
CHEMBL1981720

>  <Standard Type>  (183) 
Ki

>  <Standard Relation>  (183) 
>

>  <Standard Value>  (183) 
1584.89

>  <Standard Units>  (183) 
nM

>  <pChEMBL Value>  (183) 
nan

>  <Comment>  (183) 
inactive

>  <Compound Key>  (183) 
SID103904889

>  <Assay>  (183) 
CHEMBL1963742

>  <Assay Description>  (183) 
PUBCHEM_BIOASSAY: Navigating the Kinome. (Class of assay: other) Panel member name: JAK3

>  <BAO Format>  (183) 
assay format

>  <Target>  (183) 
CHEMBL2148

>  <Target Pref. Name>  (183) 
Tyrosine-protein kinase JAK3

>  <Target Organism>  (183) 
Homo sapiens

>  <Target Type>  (183) 
SINGLE PROTEIN

>  <Document>  (183) 
CHEMBL1201862

>  <Source>  (183) 
PubChem BioAssays

>  <Max Phase>  (183) 
0

>  <#Ro5 Violations>  (183) 
0

>  <Molecular Weight>  (183) 
265.28

>  <Ligand Efficiency BEI>  (183) 
nan

>  <Ligand Efficiency LE>  (183) 
nan

>  <Ligand Efficiency LLE>  (183) 
nan

>  <Ligand Efficiency SEI>  (183) 
nan

>  <ALogP>  (183) 
2.67

>  <Assay Organism>  (183) 
nan

>  <Assay Tissue ChEMBL ID>  (183) 
nan

>  <Assay Tissue Name>  (183) 
nan

>  <Assay Cell Type>  (183) 
nan

>  <Assay Subcellular Fraction>  (183) 
nan

>  <Organism Tax ID>  (183) 
9606

>  <BAO Format ID>  (183) 
BAO_0000019

>  <Published Type>  (183) 
nan

>  <Published Relation>  (183) 
nan

>  <Published Value>  (183) 
nan

>  <Published Units>  (183) 
nan

>  <Canonical Smiles>  (183) 
O=C(Nc1cnccn1)Nc2ccnc3ccccc23

>  <Data Validity Comment>  (183) 
nan

>  <Document Journal>  (183) 
nan

>  <Document Year>  (183) 
nan

>  <SRC ID>  (183) 
7

>  <UO Units>  (183) 
UO_0000065

>  <Potential Duplicate>  (183) 
False

>  <Class>  (183) 
0

$$$$

     RDKit          2D

 28 31  0  0  0  0  0  0  0  0999 V2000
   -8.6209    0.8585    0.0000 C   0  0  0  0  0  0  0  0  0  0  0  0
   -7.1291    1.0153    0.0000 C   0  0  0  0  0  0  0  0  0  0  0  0
   -6.2474   -0.1982    0.0000 C   0  0  0  0  0  0  0  0  0  0  0  0
   -6.5190    2.3856    0.0000 N   0  0  0  0  0  0  0  0  0  0  0  0
   -7.4006    3.5992    0.0000 C   0  0  0  0  0  0  0  0  0  0  0  0
   -5.0272    2.5424    0.0000 C   0  0  0  0  0  0  0  0  0  0  0  0
   -4.1455    1.3289    0.0000 O   0  0  0  0  0  0  0  0  0  0  0  0
   -4.4171    3.9127    0.0000 C   0  0  0  0  0  0  0  0  0  0  0  0
   -2.9499    4.2246    0.0000 C   0  0  0  0  0  0  0  0  0  0  0  0
   -2.7931    5.7164    0.0000 N   0  0  0  0  0  0  0  0  0  0  0  0
   -4.1634    6.3265    0.0000 N   0  0  0  0  0  0  0  0  0  0  0  0
   -5.1671    5.2118    0.0000 N   0  0  0  0  0  0  0  0  0  0  0  0
   -6.6589    5.3686    0.0000 C   0  0  0  0  0  0  0  0  0  0  0  0
   -7.2690    6.7389    0.0000 C   0  0  0  0  0  0  0  0  0  0  0  0
   -6.3873    7.9524    0.0000 C   0  0  0  0  0  0  0  0  0  0  0  0
   -6.9974    9.3227    0.0000 C   0  0  0  0  0  0  0  0  0  0  0  0
   -8.4892    9.4795    0.0000 C   0  0  0  0  0  0  0  0  0  0  0  0
   -9.3709    8.2660    0.0000 C   0  0  0  0  0  0  0  0  0  0  0  0
   -8.7607    6.8957    0.0000 C   0  0  0  0  0  0  0  0  0  0  0  0
   -1.8351    3.2209    0.0000 C   0  0  0  0  0  0  0  0  0  0  0  0
   -0.4086    3.6844    0.0000 C   0  0  0  0  0  0  0  0  0  0  0  0
    0.7062    2.6807    0.0000 C   0  0  0  0  0  0  0  0  0  0  0  0
    0.3943    1.2135    0.0000 C   0  0  0  0  0  0  0  0  0  0  0  0
    1.2760    0.0000    0.0000 N   0  0  0  0  0  0  0  0  0  0  0  0
    0.3943   -1.2135    0.0000 N   0  0  0  0  0  0  0  0  0  0  0  0
   -1.0323   -0.7500    0.0000 C   0  0  0  0  0  0  0  0  0  0  0  0
   -1.0323    0.7500    0.0000 C   0  0  0  0  0  0  0  0  0  0  0  0
   -2.1470    1.7537    0.0000 C   0  0  0  0  0  0  0  0  0  0  0  0
  1  2  1  0
  2  3  1  0
  2  4  1  0
  4  5  1  0
  4  6  1  0
  6  7  2  0
  6  8  1  0
  8  9  2  0
  9 10  1  0
 10 11  2  0
 11 12  1  0
 12 13  1  0
 13 14  1  0
 14 15  2  0
 15 16  1  0
 16 17  2  0
 17 18  1  0
 18 19  2  0
  9 20  1  0
 20 21  2  0
 21 22  1  0
 22 23  2  0
 23 24  1  0
 24 25  1  0
 25 26  2  0
 26 27  1  0
 27 28  2  0
 12  8  1  0
 19 14  1  0
 28 20  1  0
 27 23  1  0
M  END
>  <Molecule>  (184) 
CHEMBL1969561

>  <Standard Type>  (184) 
Ki

>  <Standard Relation>  (184) 
=

>  <Standard Value>  (184) 
1258.93

>  <Standard Units>  (184) 
nM

>  <pChEMBL Value>  (184) 
5.9

>  <Comment>  (184) 
active

>  <Compound Key>  (184) 
SID103904515

>  <Assay>  (184) 
CHEMBL1963742

>  <Assay Description>  (184) 
PUBCHEM_BIOASSAY: Navigating the Kinome. (Class of assay: other) Panel member name: JAK3

>  <BAO Format>  (184) 
assay format

>  <Target>  (184) 
CHEMBL2148

>  <Target Pref. Name>  (184) 
Tyrosine-protein kinase JAK3

>  <Target Organism>  (184) 
Homo sapiens

>  <Target Type>  (184) 
SINGLE PROTEIN

>  <Document>  (184) 
CHEMBL1201862

>  <Source>  (184) 
PubChem BioAssays

>  <Max Phase>  (184) 
0

>  <#Ro5 Violations>  (184) 
0

>  <Molecular Weight>  (184) 
374.45

>  <Ligand Efficiency BEI>  (184) 
nan

>  <Ligand Efficiency LE>  (184) 
nan

>  <Ligand Efficiency LLE>  (184) 
nan

>  <Ligand Efficiency SEI>  (184) 
nan

>  <ALogP>  (184) 
3.35

>  <Assay Organism>  (184) 
nan

>  <Assay Tissue ChEMBL ID>  (184) 
nan

>  <Assay Tissue Name>  (184) 
nan

>  <Assay Cell Type>  (184) 
nan

>  <Assay Subcellular Fraction>  (184) 
nan

>  <Organism Tax ID>  (184) 
9606

>  <BAO Format ID>  (184) 
BAO_0000019

>  <Published Type>  (184) 
nan

>  <Published Relation>  (184) 
nan

>  <Published Value>  (184) 
nan

>  <Published Units>  (184) 
nan

>  <Canonical Smiles>  (184) 
CC(C)N(C)C(=O)c1c(nnn1Cc2ccccc2)c3ccc4[nH]ncc4c3

>  <Data Validity Comment>  (184) 
nan

>  <Document Journal>  (184) 
nan

>  <Document Year>  (184) 
nan

>  <SRC ID>  (184) 
7

>  <UO Units>  (184) 
UO_0000065

>  <Potential Duplicate>  (184) 
False

>  <Class>  (184) 
1

$$$$

     RDKit          2D

 29 33  0  0  0  0  0  0  0  0999 V2000
   -5.1814   -2.6490    0.0000 C   0  0  0  0  0  0  0  0  0  0  0  0
   -3.7548   -2.1855    0.0000 C   0  0  0  0  0  0  0  0  0  0  0  0
   -3.4430   -0.7182    0.0000 C   0  0  0  0  0  0  0  0  0  0  0  0
   -2.6401   -3.1891    0.0000 C   0  0  0  0  0  0  0  0  0  0  0  0
   -1.2135   -2.7256    0.0000 N   0  0  0  0  0  0  0  0  0  0  0  0
   -0.0000   -3.6073    0.0000 C   0  0  0  0  0  0  0  0  0  0  0  0
   -0.0000   -5.1073    0.0000 N   0  0  0  0  0  0  0  0  0  0  0  0
    1.2135   -2.7256    0.0000 N   0  0  0  0  0  0  0  0  0  0  0  0
    0.7500   -1.2990    0.0000 C   0  0  0  0  0  0  0  0  0  0  0  0
    1.5000    0.0000    0.0000 C   0  0  0  0  0  0  0  0  0  0  0  0
    0.7500    1.2990    0.0000 C   0  0  0  0  0  0  0  0  0  0  0  0
   -0.7500    1.2990    0.0000 C   0  0  0  0  0  0  0  0  0  0  0  0
   -1.5000    0.0000    0.0000 C   0  0  0  0  0  0  0  0  0  0  0  0
   -0.7500   -1.2990    0.0000 C   0  0  0  0  0  0  0  0  0  0  0  0
   -1.5000    2.5981    0.0000 C   0  0  0  0  0  0  0  0  0  0  0  0
   -2.9918    2.7549    0.0000 C   0  0  0  0  0  0  0  0  0  0  0  0
   -3.3037    4.2221    0.0000 N   0  0  0  0  0  0  0  0  0  0  0  0
   -2.0046    4.9721    0.0000 C   0  0  0  0  0  0  0  0  0  0  0  0
   -1.3945    6.3424    0.0000 S   0  0  0  0  0  0  0  0  0  0  0  0
    0.0973    6.1856    0.0000 C   0  0  0  0  0  0  0  0  0  0  0  0
    0.4091    4.7184    0.0000 C   0  0  0  0  0  0  0  0  0  0  0  0
   -0.8899    3.9684    0.0000 N   0  0  0  0  0  0  0  0  0  0  0  0
   -3.9955    1.6402    0.0000 C   0  0  0  0  0  0  0  0  0  0  0  0
   -5.4627    1.9520    0.0000 C   0  0  0  0  0  0  0  0  0  0  0  0
   -6.4664    0.8373    0.0000 C   0  0  0  0  0  0  0  0  0  0  0  0
   -6.0029   -0.5893    0.0000 C   0  0  0  0  0  0  0  0  0  0  0  0
   -7.0066   -1.7040    0.0000 F   0  0  0  0  0  0  0  0  0  0  0  0
   -4.5356   -0.9012    0.0000 C   0  0  0  0  0  0  0  0  0  0  0  0
   -3.5320    0.2136    0.0000 C   0  0  0  0  0  0  0  0  0  0  0  0
  1  2  1  0
  2  3  1  0
  2  4  1  0
  4  5  1  0
  5  6  1  0
  6  7  1  0
  6  8  2  0
  8  9  1  0
  9 10  2  0
 10 11  1  0
 11 12  2  0
 12 13  1  0
 13 14  2  0
 12 15  1  0
 15 16  2  0
 16 17  1  0
 17 18  2  0
 18 19  1  0
 19 20  1  0
 20 21  2  0
 21 22  1  0
 16 23  1  0
 23 24  2  0
 24 25  1  0
 25 26  2  0
 26 27  1  0
 26 28  1  0
 28 29  2  0
 14  5  1  0
 14  9  1  0
 22 15  1  0
 22 18  1  0
 29 23  1  0
M  END
>  <Molecule>  (185) 
CHEMBL1965423

>  <Standard Type>  (185) 
Ki

>  <Standard Relation>  (185) 
>

>  <Standard Value>  (185) 
1584.89

>  <Standard Units>  (185) 
nM

>  <pChEMBL Value>  (185) 
nan

>  <Comment>  (185) 
inactive

>  <Compound Key>  (185) 
SID103905062

>  <Assay>  (185) 
CHEMBL1963742

>  <Assay Description>  (185) 
PUBCHEM_BIOASSAY: Navigating the Kinome. (Class of assay: other) Panel member name: JAK3

>  <BAO Format>  (185) 
assay format

>  <Target>  (185) 
CHEMBL2148

>  <Target Pref. Name>  (185) 
Tyrosine-protein kinase JAK3

>  <Target Organism>  (185) 
Homo sapiens

>  <Target Type>  (185) 
SINGLE PROTEIN

>  <Document>  (185) 
CHEMBL1201862

>  <Source>  (185) 
PubChem BioAssays

>  <Max Phase>  (185) 
0

>  <#Ro5 Violations>  (185) 
1

>  <Molecular Weight>  (185) 
405.5

>  <Ligand Efficiency BEI>  (185) 
nan

>  <Ligand Efficiency LE>  (185) 
nan

>  <Ligand Efficiency LLE>  (185) 
nan

>  <Ligand Efficiency SEI>  (185) 
nan

>  <ALogP>  (185) 
5.46

>  <Assay Organism>  (185) 
nan

>  <Assay Tissue ChEMBL ID>  (185) 
nan

>  <Assay Tissue Name>  (185) 
nan

>  <Assay Cell Type>  (185) 
nan

>  <Assay Subcellular Fraction>  (185) 
nan

>  <Organism Tax ID>  (185) 
9606

>  <BAO Format ID>  (185) 
BAO_0000019

>  <Published Type>  (185) 
nan

>  <Published Relation>  (185) 
nan

>  <Published Value>  (185) 
nan

>  <Published Units>  (185) 
nan

>  <Canonical Smiles>  (185) 
CC(C)Cn1c(N)nc2ccc(cc12)c3c(nc4sccn34)c5ccc(F)cc5

>  <Data Validity Comment>  (185) 
nan

>  <Document Journal>  (185) 
nan

>  <Document Year>  (185) 
nan

>  <SRC ID>  (185) 
7

>  <UO Units>  (185) 
UO_0000065

>  <Potential Duplicate>  (185) 
False

>  <Class>  (185) 
0

$$$$

     RDKit          2D

 35 38  0  0  0  0  0  0  0  0999 V2000
   -0.0813   -7.2990    0.0000 C   0  0  0  0  0  0  0  0  0  0  0  0
   -0.8313   -6.0000    0.0000 C   0  0  0  0  0  0  0  0  0  0  0  0
   -2.3313   -6.0000    0.0000 C   0  0  0  0  0  0  0  0  0  0  0  0
   -2.3313   -7.5000    0.0000 N   0  0  0  0  0  0  0  0  0  0  0  0
   -3.8313   -6.0000    0.0000 C   0  0  0  0  0  0  0  0  0  0  0  0
   -4.5813   -7.2990    0.0000 C   0  0  0  0  0  0  0  0  0  0  0  0
   -2.3313   -4.5000    0.0000 C   0  0  0  0  0  0  0  0  0  0  0  0
   -2.3313   -3.0000    0.0000 C   0  0  0  0  0  0  0  0  0  0  0  0
   -2.3313   -1.5000    0.0000 C   0  0  0  0  0  0  0  0  0  0  0  0
   -3.6304   -0.7500    0.0000 C   0  0  0  0  0  0  0  0  0  0  0  0
   -3.6304    0.7500    0.0000 N   0  0  0  0  0  0  0  0  0  0  0  0
   -2.3313    1.5000    0.0000 C   0  0  0  0  0  0  0  0  0  0  0  0
   -2.3313    3.0000    0.0000 N   0  0  0  0  0  0  0  0  0  0  0  0
   -1.0323    0.7500    0.0000 C   0  0  0  0  0  0  0  0  0  0  0  0
    0.3943    1.2135    0.0000 C   0  0  0  0  0  0  0  0  0  0  0  0
    1.2760    0.0000    0.0000 C   0  0  0  0  0  0  0  0  0  0  0  0
    0.3943   -1.2135    0.0000 S   0  0  0  0  0  0  0  0  0  0  0  0
   -1.0323   -0.7500    0.0000 C   0  0  0  0  0  0  0  0  0  0  0  0
    0.8578    2.6401    0.0000 C   0  0  0  0  0  0  0  0  0  0  0  0
    2.3250    2.9520    0.0000 C   0  0  0  0  0  0  0  0  0  0  0  0
    2.7886    4.3786    0.0000 C   0  0  0  0  0  0  0  0  0  0  0  0
    1.7849    5.4933    0.0000 C   0  0  0  0  0  0  0  0  0  0  0  0
    2.2484    6.9199    0.0000 N   0  0  0  0  0  0  0  0  0  0  0  0
    3.7156    7.2317    0.0000 C   0  0  0  0  0  0  0  0  0  0  0  0
    4.7193    6.1170    0.0000 O   0  0  0  0  0  0  0  0  0  0  0  0
    4.1791    8.6583    0.0000 N   0  0  0  0  0  0  0  0  0  0  0  0
    5.6464    8.9702    0.0000 C   0  0  0  0  0  0  0  0  0  0  0  0
    6.6501    7.8555    0.0000 C   0  0  0  0  0  0  0  0  0  0  0  0
    8.1173    8.1673    0.0000 C   0  0  0  0  0  0  0  0  0  0  0  0
    8.5808    9.5939    0.0000 C   0  0  0  0  0  0  0  0  0  0  0  0
    7.5771   10.7086    0.0000 C   0  0  0  0  0  0  0  0  0  0  0  0
    8.0406   12.1352    0.0000 C   0  0  0  0  0  0  0  0  0  0  0  0
    6.1099   10.3968    0.0000 C   0  0  0  0  0  0  0  0  0  0  0  0
    0.3177    5.1814    0.0000 C   0  0  0  0  0  0  0  0  0  0  0  0
   -0.1459    3.7548    0.0000 C   0  0  0  0  0  0  0  0  0  0  0  0
  1  2  1  0
  2  3  1  0
  3  4  1  0
  3  5  1  0
  5  6  1  0
  3  7  1  0
  7  8  3  0
  8  9  1  0
  9 10  2  0
 10 11  1  0
 11 12  2  0
 12 13  1  0
 12 14  1  0
 14 15  1  0
 15 16  2  0
 16 17  1  0
 17 18  1  0
 15 19  1  0
 19 20  2  0
 20 21  1  0
 21 22  2  0
 22 23  1  0
 23 24  1  0
 24 25  2  0
 24 26  1  0
 26 27  1  0
 27 28  2  0
 28 29  1  0
 29 30  2  0
 30 31  1  0
 31 32  1  0
 31 33  2  0
 22 34  1  0
 34 35  2  0
 18  9  1  0
 18 14  2  0
 35 19  1  0
 33 27  1  0
M  END
>  <Molecule>  (186) 
CHEMBL1983025

>  <Standard Type>  (186) 
Ki

>  <Standard Relation>  (186) 
>

>  <Standard Value>  (186) 
1584.89

>  <Standard Units>  (186) 
nM

>  <pChEMBL Value>  (186) 
nan

>  <Comment>  (186) 
inactive

>  <Compound Key>  (186) 
SID103904302

>  <Assay>  (186) 
CHEMBL1963742

>  <Assay Description>  (186) 
PUBCHEM_BIOASSAY: Navigating the Kinome. (Class of assay: other) Panel member name: JAK3

>  <BAO Format>  (186) 
assay format

>  <Target>  (186) 
CHEMBL2148

>  <Target Pref. Name>  (186) 
Tyrosine-protein kinase JAK3

>  <Target Organism>  (186) 
Homo sapiens

>  <Target Type>  (186) 
SINGLE PROTEIN

>  <Document>  (186) 
CHEMBL1201862

>  <Source>  (186) 
PubChem BioAssays

>  <Max Phase>  (186) 
0

>  <#Ro5 Violations>  (186) 
1

>  <Molecular Weight>  (186) 
483.64

>  <Ligand Efficiency BEI>  (186) 
nan

>  <Ligand Efficiency LE>  (186) 
nan

>  <Ligand Efficiency LLE>  (186) 
nan

>  <Ligand Efficiency SEI>  (186) 
nan

>  <ALogP>  (186) 
6.37

>  <Assay Organism>  (186) 
nan

>  <Assay Tissue ChEMBL ID>  (186) 
nan

>  <Assay Tissue Name>  (186) 
nan

>  <Assay Cell Type>  (186) 
nan

>  <Assay Subcellular Fraction>  (186) 
nan

>  <Organism Tax ID>  (186) 
9606

>  <BAO Format ID>  (186) 
BAO_0000019

>  <Published Type>  (186) 
nan

>  <Published Relation>  (186) 
nan

>  <Published Value>  (186) 
nan

>  <Published Units>  (186) 
nan

>  <Canonical Smiles>  (186) 
CCC(N)(CC)C#Cc1cnc(N)c2c(csc12)c3ccc(NC(=O)Nc4cccc(C)c4)cc3

>  <Data Validity Comment>  (186) 
nan

>  <Document Journal>  (186) 
nan

>  <Document Year>  (186) 
nan

>  <SRC ID>  (186) 
7

>  <UO Units>  (186) 
UO_0000065

>  <Potential Duplicate>  (186) 
False

>  <Class>  (186) 
0

$$$$

     RDKit          2D

 30 34  0  0  0  0  0  0  0  0999 V2000
   -0.7500   -9.0933    0.0000 N   0  0  0  0  0  0  0  0  0  0  0  0
   -1.5000   -7.7942    0.0000 C   0  0  0  0  0  0  0  0  0  0  0  0
   -0.7500   -6.4952    0.0000 C   0  0  0  0  0  0  0  0  0  0  0  0
    0.7500   -6.4952    0.0000 O   0  0  0  0  0  0  0  0  0  0  0  0
    1.5000   -5.1962    0.0000 C   0  0  0  0  0  0  0  0  0  0  0  0
    3.0000   -5.1962    0.0000 C   0  0  0  0  0  0  0  0  0  0  0  0
    3.7500   -3.8971    0.0000 N   0  0  0  0  0  0  0  0  0  0  0  0
    3.0000   -2.5981    0.0000 C   0  0  0  0  0  0  0  0  0  0  0  0
    1.5000   -2.5981    0.0000 C   0  0  0  0  0  0  0  0  0  0  0  0
    0.7500   -3.8971    0.0000 C   0  0  0  0  0  0  0  0  0  0  0  0
    0.7500   -1.2990    0.0000 C   0  0  0  0  0  0  0  0  0  0  0  0
    1.5000    0.0000    0.0000 C   0  0  0  0  0  0  0  0  0  0  0  0
    0.7500    1.2990    0.0000 C   0  0  0  0  0  0  0  0  0  0  0  0
   -0.7500    1.2990    0.0000 C   0  0  0  0  0  0  0  0  0  0  0  0
   -1.7537    2.4138    0.0000 N   0  0  0  0  0  0  0  0  0  0  0  0
   -3.1240    1.8037    0.0000 C   0  0  0  0  0  0  0  0  0  0  0  0
   -4.4231    2.5537    0.0000 O   0  0  0  0  0  0  0  0  0  0  0  0
   -2.9672    0.3119    0.0000 O   0  0  0  0  0  0  0  0  0  0  0  0
   -1.5000    0.0000    0.0000 C   0  0  0  0  0  0  0  0  0  0  0  0
   -0.7500   -1.2990    0.0000 C   0  0  0  0  0  0  0  0  0  0  0  0
   -3.0000   -7.7942    0.0000 C   0  0  0  0  0  0  0  0  0  0  0  0
   -3.7500   -9.0933    0.0000 C   0  0  0  0  0  0  0  0  0  0  0  0
   -3.1399  -10.4636    0.0000 C   0  0  0  0  0  0  0  0  0  0  0  0
   -4.2546  -11.4673    0.0000 N   0  0  0  0  0  0  0  0  0  0  0  0
   -5.5537  -10.7173    0.0000 C   0  0  0  0  0  0  0  0  0  0  0  0
   -6.9802  -11.1808    0.0000 C   0  0  0  0  0  0  0  0  0  0  0  0
   -8.0950  -10.1771    0.0000 C   0  0  0  0  0  0  0  0  0  0  0  0
   -7.7831   -8.7099    0.0000 C   0  0  0  0  0  0  0  0  0  0  0  0
   -6.3565   -8.2464    0.0000 C   0  0  0  0  0  0  0  0  0  0  0  0
   -5.2418   -9.2501    0.0000 C   0  0  0  0  0  0  0  0  0  0  0  0
  1  2  1  0
  2  3  1  0
  3  4  1  0
  4  5  1  0
  5  6  2  0
  6  7  1  0
  7  8  2  0
  8  9  1  0
  9 10  2  0
  9 11  1  0
 11 12  2  0
 12 13  1  0
 13 14  2  0
 14 15  1  0
 15 16  1  0
 16 17  2  0
 16 18  1  0
 18 19  1  0
 19 20  2  0
  2 21  1  0
 21 22  1  0
 22 23  2  0
 23 24  1  0
 24 25  1  0
 25 26  2  0
 26 27  1  0
 27 28  2  0
 28 29  1  0
 29 30  2  0
 10  5  1  0
 20 11  1  0
 19 14  1  0
 30 22  1  0
 30 25  1  0
M  END
>  <Molecule>  (187) 
CHEMBL1987679

>  <Standard Type>  (187) 
Ki

>  <Standard Relation>  (187) 
>

>  <Standard Value>  (187) 
1584.89

>  <Standard Units>  (187) 
nM

>  <pChEMBL Value>  (187) 
nan

>  <Comment>  (187) 
inactive

>  <Compound Key>  (187) 
SID103904478

>  <Assay>  (187) 
CHEMBL1963742

>  <Assay Description>  (187) 
PUBCHEM_BIOASSAY: Navigating the Kinome. (Class of assay: other) Panel member name: JAK3

>  <BAO Format>  (187) 
assay format

>  <Target>  (187) 
CHEMBL2148

>  <Target Pref. Name>  (187) 
Tyrosine-protein kinase JAK3

>  <Target Organism>  (187) 
Homo sapiens

>  <Target Type>  (187) 
SINGLE PROTEIN

>  <Document>  (187) 
CHEMBL1201862

>  <Source>  (187) 
PubChem BioAssays

>  <Max Phase>  (187) 
0

>  <#Ro5 Violations>  (187) 
0

>  <Molecular Weight>  (187) 
400.44

>  <Ligand Efficiency BEI>  (187) 
nan

>  <Ligand Efficiency LE>  (187) 
nan

>  <Ligand Efficiency LLE>  (187) 
nan

>  <Ligand Efficiency SEI>  (187) 
nan

>  <ALogP>  (187) 
3.61

>  <Assay Organism>  (187) 
nan

>  <Assay Tissue ChEMBL ID>  (187) 
nan

>  <Assay Tissue Name>  (187) 
nan

>  <Assay Cell Type>  (187) 
nan

>  <Assay Subcellular Fraction>  (187) 
nan

>  <Organism Tax ID>  (187) 
9606

>  <BAO Format ID>  (187) 
BAO_0000019

>  <Published Type>  (187) 
nan

>  <Published Relation>  (187) 
nan

>  <Published Value>  (187) 
nan

>  <Published Units>  (187) 
nan

>  <Canonical Smiles>  (187) 
NC(COc1cncc(c1)c2ccc3NC(=O)Oc3c2)Cc4c[nH]c5ccccc45

>  <Data Validity Comment>  (187) 
nan

>  <Document Journal>  (187) 
nan

>  <Document Year>  (187) 
nan

>  <SRC ID>  (187) 
7

>  <UO Units>  (187) 
UO_0000065

>  <Potential Duplicate>  (187) 
False

>  <Class>  (187) 
0

$$$$

     RDKit          2D

 23 25  0  0  0  0  0  0  0  0999 V2000
   -1.0409   -5.7068    0.0000 N   0  0  0  0  0  0  0  0  0  0  0  0
   -0.5773   -4.2803    0.0000 C   0  0  0  0  0  0  0  0  0  0  0  0
   -1.5810   -3.1655    0.0000 O   0  0  0  0  0  0  0  0  0  0  0  0
    0.8899   -3.9684    0.0000 C   0  0  0  0  0  0  0  0  0  0  0  0
    2.0046   -4.9721    0.0000 C   0  0  0  0  0  0  0  0  0  0  0  0
    3.3037   -4.2221    0.0000 C   0  0  0  0  0  0  0  0  0  0  0  0
    2.9918   -2.7549    0.0000 N   0  0  0  0  0  0  0  0  0  0  0  0
    1.5000   -2.5981    0.0000 C   0  0  0  0  0  0  0  0  0  0  0  0
    0.7500   -1.2990    0.0000 C   0  0  0  0  0  0  0  0  0  0  0  0
   -0.7500   -1.2990    0.0000 C   0  0  0  0  0  0  0  0  0  0  0  0
   -1.5000   -0.0000    0.0000 C   0  0  0  0  0  0  0  0  0  0  0  0
   -0.7500    1.2990    0.0000 C   0  0  0  0  0  0  0  0  0  0  0  0
   -1.5000    2.5981    0.0000 Cl  0  0  0  0  0  0  0  0  0  0  0  0
    0.7500    1.2990    0.0000 C   0  0  0  0  0  0  0  0  0  0  0  0
    1.5000   -0.0000    0.0000 C   0  0  0  0  0  0  0  0  0  0  0  0
    3.0000   -0.0000    0.0000 Cl  0  0  0  0  0  0  0  0  0  0  0  0
    4.6740   -4.8322    0.0000 C   0  0  0  0  0  0  0  0  0  0  0  0
    4.8308   -6.3240    0.0000 C   0  0  0  0  0  0  0  0  0  0  0  0
    6.2011   -6.9341    0.0000 C   0  0  0  0  0  0  0  0  0  0  0  0
    7.4146   -6.0524    0.0000 N   0  0  0  0  0  0  0  0  0  0  0  0
    7.2578   -4.5606    0.0000 C   0  0  0  0  0  0  0  0  0  0  0  0
    8.4713   -3.6789    0.0000 N   0  0  0  0  0  0  0  0  0  0  0  0
    5.8875   -3.9505    0.0000 N   0  0  0  0  0  0  0  0  0  0  0  0
  1  2  1  0
  2  3  2  0
  2  4  1  0
  4  5  1  0
  5  6  2  0
  6  7  1  0
  7  8  1  0
  8  9  1  0
  9 10  2  0
 10 11  1  0
 11 12  2  0
 12 13  1  0
 12 14  1  0
 14 15  2  0
 15 16  1  0
  6 17  1  0
 17 18  2  0
 18 19  1  0
 19 20  2  0
 20 21  1  0
 21 22  1  0
 21 23  2  0
  8  4  2  0
 15  9  1  0
 23 17  1  0
M  END
>  <Molecule>  (188) 
CHEMBL1965660

>  <Standard Type>  (188) 
Ki

>  <Standard Relation>  (188) 
=

>  <Standard Value>  (188) 
1000.0

>  <Standard Units>  (188) 
nM

>  <pChEMBL Value>  (188) 
6.0

>  <Comment>  (188) 
active

>  <Compound Key>  (188) 
SID103904985

>  <Assay>  (188) 
CHEMBL1963742

>  <Assay Description>  (188) 
PUBCHEM_BIOASSAY: Navigating the Kinome. (Class of assay: other) Panel member name: JAK3

>  <BAO Format>  (188) 
assay format

>  <Target>  (188) 
CHEMBL2148

>  <Target Pref. Name>  (188) 
Tyrosine-protein kinase JAK3

>  <Target Organism>  (188) 
Homo sapiens

>  <Target Type>  (188) 
SINGLE PROTEIN

>  <Document>  (188) 
CHEMBL1201862

>  <Source>  (188) 
PubChem BioAssays

>  <Max Phase>  (188) 
0

>  <#Ro5 Violations>  (188) 
0

>  <Molecular Weight>  (188) 
348.19

>  <Ligand Efficiency BEI>  (188) 
nan

>  <Ligand Efficiency LE>  (188) 
nan

>  <Ligand Efficiency LLE>  (188) 
nan

>  <Ligand Efficiency SEI>  (188) 
nan

>  <ALogP>  (188) 
3.13

>  <Assay Organism>  (188) 
nan

>  <Assay Tissue ChEMBL ID>  (188) 
nan

>  <Assay Tissue Name>  (188) 
nan

>  <Assay Cell Type>  (188) 
nan

>  <Assay Subcellular Fraction>  (188) 
nan

>  <Organism Tax ID>  (188) 
9606

>  <BAO Format ID>  (188) 
BAO_0000019

>  <Published Type>  (188) 
nan

>  <Published Relation>  (188) 
nan

>  <Published Value>  (188) 
nan

>  <Published Units>  (188) 
nan

>  <Canonical Smiles>  (188) 
NC(=O)c1cc([nH]c1c2ccc(Cl)cc2Cl)c3ccnc(N)n3

>  <Data Validity Comment>  (188) 
nan

>  <Document Journal>  (188) 
nan

>  <Document Year>  (188) 
nan

>  <SRC ID>  (188) 
7

>  <UO Units>  (188) 
UO_0000065

>  <Potential Duplicate>  (188) 
False

>  <Class>  (188) 
1

$$$$

     RDKit          2D

 35 40  0  0  0  0  0  0  0  0999 V2000
    3.0000    0.0000    0.0000 N   0  0  0  0  0  0  0  0  0  0  0  0
    1.5000    0.0000    0.0000 C   0  0  0  0  0  0  0  0  0  0  0  0
    0.7500   -1.2990    0.0000 N   0  0  0  0  0  0  0  0  0  0  0  0
   -0.7500   -1.2990    0.0000 C   0  0  0  0  0  0  0  0  0  0  0  0
   -1.5000    0.0000    0.0000 N   0  0  0  0  0  0  0  0  0  0  0  0
   -0.7500    1.2990    0.0000 C   0  0  0  0  0  0  0  0  0  0  0  0
    0.7500    1.2990    0.0000 C   0  0  0  0  0  0  0  0  0  0  0  0
    1.2135    2.7256    0.0000 C   0  0  0  0  0  0  0  0  0  0  0  0
   -0.0000    3.6073    0.0000 C   0  0  0  0  0  0  0  0  0  0  0  0
   -1.2135    2.7256    0.0000 N   0  0  0  0  0  0  0  0  0  0  0  0
   -2.6401    3.1891    0.0000 C   0  0  0  0  0  0  0  0  0  0  0  0
   -2.9520    4.6564    0.0000 C   0  0  0  0  0  0  0  0  0  0  0  0
   -4.3786    5.1199    0.0000 C   0  0  0  0  0  0  0  0  0  0  0  0
   -5.4933    4.1162    0.0000 C   0  0  0  0  0  0  0  0  0  0  0  0
   -5.1814    2.6490    0.0000 C   0  0  0  0  0  0  0  0  0  0  0  0
   -3.7548    2.1855    0.0000 C   0  0  0  0  0  0  0  0  0  0  0  0
   -6.9199    4.5797    0.0000 N   0  0  0  0  0  0  0  0  0  0  0  0
   -8.1334    3.6980    0.0000 C   0  0  0  0  0  0  0  0  0  0  0  0
   -9.3469    4.5797    0.0000 C   0  0  0  0  0  0  0  0  0  0  0  0
   -8.8834    6.0063    0.0000 C   0  0  0  0  0  0  0  0  0  0  0  0
   -7.3834    6.0063    0.0000 C   0  0  0  0  0  0  0  0  0  0  0  0
    2.6401    3.1891    0.0000 C   0  0  0  0  0  0  0  0  0  0  0  0
    3.7548    2.1855    0.0000 C   0  0  0  0  0  0  0  0  0  0  0  0
    5.1814    2.6490    0.0000 C   0  0  0  0  0  0  0  0  0  0  0  0
    5.4933    4.1162    0.0000 C   0  0  0  0  0  0  0  0  0  0  0  0
    4.3786    5.1199    0.0000 C   0  0  0  0  0  0  0  0  0  0  0  0
    4.6904    6.5871    0.0000 O   0  0  0  0  0  0  0  0  0  0  0  0
    6.1170    7.0506    0.0000 C   0  0  0  0  0  0  0  0  0  0  0  0
    6.4289    8.5179    0.0000 C   0  0  0  0  0  0  0  0  0  0  0  0
    7.8555    8.9814    0.0000 C   0  0  0  0  0  0  0  0  0  0  0  0
    8.1673   10.4486    0.0000 C   0  0  0  0  0  0  0  0  0  0  0  0
    7.0526   11.4523    0.0000 C   0  0  0  0  0  0  0  0  0  0  0  0
    5.6260   10.9888    0.0000 C   0  0  0  0  0  0  0  0  0  0  0  0
    5.3142    9.5216    0.0000 C   0  0  0  0  0  0  0  0  0  0  0  0
    2.9520    4.6564    0.0000 C   0  0  0  0  0  0  0  0  0  0  0  0
  1  2  1  0
  2  3  2  0
  3  4  1  0
  4  5  2  0
  5  6  1  0
  6  7  2  0
  7  8  1  0
  8  9  2  0
  9 10  1  0
 10 11  1  0
 11 12  1  0
 12 13  1  0
 13 14  1  0
 14 15  1  0
 15 16  1  0
 14 17  1  0
 17 18  1  0
 18 19  1  0
 19 20  1  0
 20 21  1  0
  8 22  1  0
 22 23  2  0
 23 24  1  0
 24 25  2  0
 25 26  1  0
 26 27  1  0
 27 28  1  0
 28 29  1  0
 29 30  2  0
 30 31  1  0
 31 32  2  0
 32 33  1  0
 33 34  2  0
 26 35  2  0
  7  2  1  0
 10  6  1  0
 16 11  1  0
 21 17  1  0
 35 22  1  0
 34 29  1  0
M  END
>  <Molecule>  (189) 
CHEMBL1965910

>  <Standard Type>  (189) 
Ki

>  <Standard Relation>  (189) 
>

>  <Standard Value>  (189) 
1584.89

>  <Standard Units>  (189) 
nM

>  <pChEMBL Value>  (189) 
nan

>  <Comment>  (189) 
inactive

>  <Compound Key>  (189) 
SID103904995

>  <Assay>  (189) 
CHEMBL1963742

>  <Assay Description>  (189) 
PUBCHEM_BIOASSAY: Navigating the Kinome. (Class of assay: other) Panel member name: JAK3

>  <BAO Format>  (189) 
assay format

>  <Target>  (189) 
CHEMBL2148

>  <Target Pref. Name>  (189) 
Tyrosine-protein kinase JAK3

>  <Target Organism>  (189) 
Homo sapiens

>  <Target Type>  (189) 
SINGLE PROTEIN

>  <Document>  (189) 
CHEMBL1201862

>  <Source>  (189) 
PubChem BioAssays

>  <Max Phase>  (189) 
0

>  <#Ro5 Violations>  (189) 
1

>  <Molecular Weight>  (189) 
467.62

>  <Ligand Efficiency BEI>  (189) 
nan

>  <Ligand Efficiency LE>  (189) 
nan

>  <Ligand Efficiency LLE>  (189) 
nan

>  <Ligand Efficiency SEI>  (189) 
nan

>  <ALogP>  (189) 
5.84

>  <Assay Organism>  (189) 
nan

>  <Assay Tissue ChEMBL ID>  (189) 
nan

>  <Assay Tissue Name>  (189) 
nan

>  <Assay Cell Type>  (189) 
nan

>  <Assay Subcellular Fraction>  (189) 
nan

>  <Organism Tax ID>  (189) 
9606

>  <BAO Format ID>  (189) 
BAO_0000019

>  <Published Type>  (189) 
nan

>  <Published Relation>  (189) 
nan

>  <Published Value>  (189) 
nan

>  <Published Units>  (189) 
nan

>  <Canonical Smiles>  (189) 
Nc1ncnc2c1c(cn2C3CCC(CC3)N4CCCC4)c5cccc(OCc6ccccc6)c5

>  <Data Validity Comment>  (189) 
nan

>  <Document Journal>  (189) 
nan

>  <Document Year>  (189) 
nan

>  <SRC ID>  (189) 
7

>  <UO Units>  (189) 
UO_0000065

>  <Potential Duplicate>  (189) 
False

>  <Class>  (189) 
0

$$$$

     RDKit          2D

 34 38  0  0  0  0  0  0  0  0999 V2000
   -5.0653  -18.3057    0.0000 C   0  0  0  0  0  0  0  0  0  0  0  0
   -3.7662  -17.5557    0.0000 O   0  0  0  0  0  0  0  0  0  0  0  0
   -3.7662  -16.0557    0.0000 C   0  0  0  0  0  0  0  0  0  0  0  0
   -2.4672  -15.3057    0.0000 C   0  0  0  0  0  0  0  0  0  0  0  0
   -2.4672  -13.8057    0.0000 O   0  0  0  0  0  0  0  0  0  0  0  0
   -1.1682  -13.0557    0.0000 C   0  0  0  0  0  0  0  0  0  0  0  0
   -1.1682  -11.5557    0.0000 C   0  0  0  0  0  0  0  0  0  0  0  0
   -1.1682  -10.0557    0.0000 C   0  0  0  0  0  0  0  0  0  0  0  0
   -1.1682   -8.5557    0.0000 C   0  0  0  0  0  0  0  0  0  0  0  0
    0.0454   -7.6740    0.0000 C   0  0  0  0  0  0  0  0  0  0  0  0
   -0.4182   -6.2474    0.0000 C   0  0  0  0  0  0  0  0  0  0  0  0
   -1.9182   -6.2474    0.0000 C   0  0  0  0  0  0  0  0  0  0  0  0
   -2.3817   -7.6740    0.0000 S   0  0  0  0  0  0  0  0  0  0  0  0
    0.4635   -5.0339    0.0000 C   0  0  0  0  0  0  0  0  0  0  0  0
    1.9635   -5.0339    0.0000 N   0  0  0  0  0  0  0  0  0  0  0  0
    2.4271   -3.6073    0.0000 N   0  0  0  0  0  0  0  0  0  0  0  0
    1.2135   -2.7256    0.0000 C   0  0  0  0  0  0  0  0  0  0  0  0
    0.7500   -1.2990    0.0000 C   0  0  0  0  0  0  0  0  0  0  0  0
    1.5000    0.0000    0.0000 C   0  0  0  0  0  0  0  0  0  0  0  0
    0.7500    1.2990    0.0000 C   0  0  0  0  0  0  0  0  0  0  0  0
   -0.7500    1.2990    0.0000 C   0  0  0  0  0  0  0  0  0  0  0  0
   -1.5000    2.5981    0.0000 C   0  0  0  0  0  0  0  0  0  0  0  0
   -0.7500    3.8971    0.0000 N   0  0  0  0  0  0  0  0  0  0  0  0
    0.7500    3.8971    0.0000 C   0  0  0  0  0  0  0  0  0  0  0  0
    1.5000    5.1962    0.0000 C   0  0  0  0  0  0  0  0  0  0  0  0
    0.7500    6.4952    0.0000 N   0  0  0  0  0  0  0  0  0  0  0  0
    1.5000    7.7942    0.0000 C   0  0  0  0  0  0  0  0  0  0  0  0
   -0.7500    6.4952    0.0000 C   0  0  0  0  0  0  0  0  0  0  0  0
   -1.5000    5.1962    0.0000 C   0  0  0  0  0  0  0  0  0  0  0  0
   -1.5000    0.0000    0.0000 C   0  0  0  0  0  0  0  0  0  0  0  0
   -0.7500   -1.2990    0.0000 C   0  0  0  0  0  0  0  0  0  0  0  0
   -1.2135   -2.7256    0.0000 C   0  0  0  0  0  0  0  0  0  0  0  0
   -2.6401   -3.1891    0.0000 O   0  0  0  0  0  0  0  0  0  0  0  0
    0.0000   -3.6073    0.0000 C   0  0  0  0  0  0  0  0  0  0  0  0
  1  2  1  0
  2  3  1  0
  3  4  1  0
  4  5  1  0
  5  6  1  0
  6  7  1  0
  7  8  3  0
  8  9  1  0
  9 10  2  0
 10 11  1  0
 11 12  2  0
 12 13  1  0
 11 14  1  0
 14 15  2  0
 15 16  1  0
 16 17  1  0
 17 18  1  0
 18 19  2  0
 19 20  1  0
 20 21  2  0
 21 22  1  0
 22 23  1  0
 23 24  1  0
 24 25  1  0
 25 26  1  0
 26 27  1  0
 26 28  1  0
 28 29  1  0
 21 30  1  0
 30 31  2  0
 31 32  1  0
 32 33  2  0
 32 34  1  0
 13  9  1  0
 34 14  1  0
 34 17  2  0
 31 18  1  0
 29 23  1  0
M  END
>  <Molecule>  (190) 
CHEMBL387971

>  <Standard Type>  (190) 
Ki

>  <Standard Relation>  (190) 
>

>  <Standard Value>  (190) 
1584.89

>  <Standard Units>  (190) 
nM

>  <pChEMBL Value>  (190) 
nan

>  <Comment>  (190) 
inactive

>  <Compound Key>  (190) 
SID103904812

>  <Assay>  (190) 
CHEMBL1963742

>  <Assay Description>  (190) 
PUBCHEM_BIOASSAY: Navigating the Kinome. (Class of assay: other) Panel member name: JAK3

>  <BAO Format>  (190) 
assay format

>  <Target>  (190) 
CHEMBL2148

>  <Target Pref. Name>  (190) 
Tyrosine-protein kinase JAK3

>  <Target Organism>  (190) 
Homo sapiens

>  <Target Type>  (190) 
SINGLE PROTEIN

>  <Document>  (190) 
CHEMBL1201862

>  <Source>  (190) 
PubChem BioAssays

>  <Max Phase>  (190) 
0

>  <#Ro5 Violations>  (190) 
0

>  <Molecular Weight>  (190) 
476.6

>  <Ligand Efficiency BEI>  (190) 
nan

>  <Ligand Efficiency LE>  (190) 
nan

>  <Ligand Efficiency LLE>  (190) 
nan

>  <Ligand Efficiency SEI>  (190) 
nan

>  <ALogP>  (190) 
3.11

>  <Assay Organism>  (190) 
nan

>  <Assay Tissue ChEMBL ID>  (190) 
nan

>  <Assay Tissue Name>  (190) 
nan

>  <Assay Cell Type>  (190) 
nan

>  <Assay Subcellular Fraction>  (190) 
nan

>  <Organism Tax ID>  (190) 
9606

>  <BAO Format ID>  (190) 
BAO_0000019

>  <Published Type>  (190) 
nan

>  <Published Relation>  (190) 
nan

>  <Published Value>  (190) 
nan

>  <Published Units>  (190) 
nan

>  <Canonical Smiles>  (190) 
COCCOCC#Cc1cc(cs1)c2n[nH]c3c4ccc(CN5CCN(C)CC5)cc4C(=O)c23

>  <Data Validity Comment>  (190) 
nan

>  <Document Journal>  (190) 
nan

>  <Document Year>  (190) 
nan

>  <SRC ID>  (190) 
7

>  <UO Units>  (190) 
UO_0000065

>  <Potential Duplicate>  (190) 
False

>  <Class>  (190) 
0

$$$$

     RDKit          2D

 13 15  0  0  0  0  0  0  0  0999 V2000
   -5.5076    3.6474    0.0000 Br  0  0  0  0  0  0  0  0  0  0  0  0
   -4.0159    3.4906    0.0000 C   0  0  0  0  0  0  0  0  0  0  0  0
   -3.1342    4.7042    0.0000 C   0  0  0  0  0  0  0  0  0  0  0  0
   -1.6424    4.5474    0.0000 C   0  0  0  0  0  0  0  0  0  0  0  0
   -1.0323    3.1771    0.0000 C   0  0  0  0  0  0  0  0  0  0  0  0
    0.3943    2.7135    0.0000 C   0  0  0  0  0  0  0  0  0  0  0  0
    0.3943    1.2135    0.0000 C   0  0  0  0  0  0  0  0  0  0  0  0
    1.2760    0.0000    0.0000 C   0  0  0  0  0  0  0  0  0  0  0  0
    0.3943   -1.2135    0.0000 N   0  0  0  0  0  0  0  0  0  0  0  0
   -1.0323   -0.7500    0.0000 N   0  0  0  0  0  0  0  0  0  0  0  0
   -1.0323    0.7500    0.0000 C   0  0  0  0  0  0  0  0  0  0  0  0
   -1.9140    1.9635    0.0000 C   0  0  0  0  0  0  0  0  0  0  0  0
   -3.4057    2.1203    0.0000 C   0  0  0  0  0  0  0  0  0  0  0  0
  1  2  1  0
  2  3  2  0
  3  4  1  0
  4  5  2  0
  5  6  1  0
  6  7  1  0
  7  8  1  0
  8  9  2  0
  9 10  1  0
 10 11  1  0
 11 12  1  0
 12 13  2  0
 13  2  1  0
 12  5  1  0
 11  7  2  0
M  END
>  <Molecule>  (191) 
CHEMBL1995172

>  <Standard Type>  (191) 
Ki

>  <Standard Relation>  (191) 
>

>  <Standard Value>  (191) 
5011.87

>  <Standard Units>  (191) 
nM

>  <pChEMBL Value>  (191) 
nan

>  <Comment>  (191) 
inactive

>  <Compound Key>  (191) 
SID103905581

>  <Assay>  (191) 
CHEMBL1963742

>  <Assay Description>  (191) 
PUBCHEM_BIOASSAY: Navigating the Kinome. (Class of assay: other) Panel member name: JAK3

>  <BAO Format>  (191) 
assay format

>  <Target>  (191) 
CHEMBL2148

>  <Target Pref. Name>  (191) 
Tyrosine-protein kinase JAK3

>  <Target Organism>  (191) 
Homo sapiens

>  <Target Type>  (191) 
SINGLE PROTEIN

>  <Document>  (191) 
CHEMBL1201862

>  <Source>  (191) 
PubChem BioAssays

>  <Max Phase>  (191) 
0

>  <#Ro5 Violations>  (191) 
0

>  <Molecular Weight>  (191) 
235.08

>  <Ligand Efficiency BEI>  (191) 
nan

>  <Ligand Efficiency LE>  (191) 
nan

>  <Ligand Efficiency LLE>  (191) 
nan

>  <Ligand Efficiency SEI>  (191) 
nan

>  <ALogP>  (191) 
2.74

>  <Assay Organism>  (191) 
nan

>  <Assay Tissue ChEMBL ID>  (191) 
nan

>  <Assay Tissue Name>  (191) 
nan

>  <Assay Cell Type>  (191) 
nan

>  <Assay Subcellular Fraction>  (191) 
nan

>  <Organism Tax ID>  (191) 
9606

>  <BAO Format ID>  (191) 
BAO_0000019

>  <Published Type>  (191) 
nan

>  <Published Relation>  (191) 
nan

>  <Published Value>  (191) 
nan

>  <Published Units>  (191) 
nan

>  <Canonical Smiles>  (191) 
Brc1ccc2Cc3cn[nH]c3c2c1

>  <Data Validity Comment>  (191) 
nan

>  <Document Journal>  (191) 
nan

>  <Document Year>  (191) 
nan

>  <SRC ID>  (191) 
7

>  <UO Units>  (191) 
UO_0000065

>  <Potential Duplicate>  (191) 
False

>  <Class>  (191) 
0

$$$$

     RDKit          2D

 35 38  0  0  0  0  0  0  0  0999 V2000
    8.0406   12.1352    0.0000 C   0  0  0  0  0  0  0  0  0  0  0  0
    7.5771   10.7086    0.0000 C   0  0  0  0  0  0  0  0  0  0  0  0
    8.5808    9.5939    0.0000 C   0  0  0  0  0  0  0  0  0  0  0  0
    8.1173    8.1673    0.0000 C   0  0  0  0  0  0  0  0  0  0  0  0
    6.6501    7.8555    0.0000 C   0  0  0  0  0  0  0  0  0  0  0  0
    5.6464    8.9702    0.0000 C   0  0  0  0  0  0  0  0  0  0  0  0
    4.1791    8.6583    0.0000 N   0  0  0  0  0  0  0  0  0  0  0  0
    3.7156    7.2317    0.0000 C   0  0  0  0  0  0  0  0  0  0  0  0
    4.7193    6.1170    0.0000 O   0  0  0  0  0  0  0  0  0  0  0  0
    2.2484    6.9199    0.0000 N   0  0  0  0  0  0  0  0  0  0  0  0
    1.7849    5.4933    0.0000 C   0  0  0  0  0  0  0  0  0  0  0  0
    0.3177    5.1814    0.0000 C   0  0  0  0  0  0  0  0  0  0  0  0
   -0.1459    3.7548    0.0000 C   0  0  0  0  0  0  0  0  0  0  0  0
    0.8578    2.6401    0.0000 C   0  0  0  0  0  0  0  0  0  0  0  0
    2.3250    2.9520    0.0000 C   0  0  0  0  0  0  0  0  0  0  0  0
    2.7886    4.3786    0.0000 C   0  0  0  0  0  0  0  0  0  0  0  0
    0.3943    1.2135    0.0000 C   0  0  0  0  0  0  0  0  0  0  0  0
    1.2760    0.0000    0.0000 C   0  0  0  0  0  0  0  0  0  0  0  0
    0.3943   -1.2135    0.0000 S   0  0  0  0  0  0  0  0  0  0  0  0
   -1.0323   -0.7500    0.0000 C   0  0  0  0  0  0  0  0  0  0  0  0
   -2.3313   -1.5000    0.0000 C   0  0  0  0  0  0  0  0  0  0  0  0
   -3.6304   -0.7500    0.0000 C   0  0  0  0  0  0  0  0  0  0  0  0
   -3.6304    0.7500    0.0000 N   0  0  0  0  0  0  0  0  0  0  0  0
   -2.3313    1.5000    0.0000 C   0  0  0  0  0  0  0  0  0  0  0  0
   -2.3313    3.0000    0.0000 N   0  0  0  0  0  0  0  0  0  0  0  0
   -1.0323    0.7500    0.0000 C   0  0  0  0  0  0  0  0  0  0  0  0
   -2.3313   -3.0000    0.0000 C   0  0  0  0  0  0  0  0  0  0  0  0
   -2.3313   -4.5000    0.0000 C   0  0  0  0  0  0  0  0  0  0  0  0
   -2.3313   -6.0000    0.0000 C   0  0  0  0  0  0  0  0  0  0  0  0
   -3.6304   -6.7500    0.0000 N   0  0  0  0  0  0  0  0  0  0  0  0
   -3.6304   -8.2500    0.0000 S   0  0  0  0  0  0  0  0  0  0  0  0
   -2.1304   -8.2500    0.0000 O   0  0  0  0  0  0  0  0  0  0  0  0
   -5.1304   -8.2500    0.0000 O   0  0  0  0  0  0  0  0  0  0  0  0
   -3.6304   -9.7500    0.0000 C   0  0  0  0  0  0  0  0  0  0  0  0
    6.1099   10.3968    0.0000 C   0  0  0  0  0  0  0  0  0  0  0  0
  1  2  1  0
  2  3  2  0
  3  4  1  0
  4  5  2  0
  5  6  1  0
  6  7  1  0
  7  8  1  0
  8  9  2  0
  8 10  1  0
 10 11  1  0
 11 12  2  0
 12 13  1  0
 13 14  2  0
 14 15  1  0
 15 16  2  0
 14 17  1  0
 17 18  2  0
 18 19  1  0
 19 20  1  0
 20 21  2  0
 21 22  1  0
 22 23  2  0
 23 24  1  0
 24 25  1  0
 24 26  2  0
 21 27  1  0
 27 28  3  0
 28 29  1  0
 29 30  1  0
 30 31  1  0
 31 32  2  0
 31 33  2  0
 31 34  1  0
  6 35  2  0
 35  2  1  0
 16 11  1  0
 26 17  1  0
 26 20  1  0
M  END
>  <Molecule>  (192) 
CHEMBL1994321

>  <Standard Type>  (192) 
Ki

>  <Standard Relation>  (192) 
>

>  <Standard Value>  (192) 
1584.89

>  <Standard Units>  (192) 
nM

>  <pChEMBL Value>  (192) 
nan

>  <Comment>  (192) 
inactive

>  <Compound Key>  (192) 
SID103904304

>  <Assay>  (192) 
CHEMBL1963742

>  <Assay Description>  (192) 
PUBCHEM_BIOASSAY: Navigating the Kinome. (Class of assay: other) Panel member name: JAK3

>  <BAO Format>  (192) 
assay format

>  <Target>  (192) 
CHEMBL2148

>  <Target Pref. Name>  (192) 
Tyrosine-protein kinase JAK3

>  <Target Organism>  (192) 
Homo sapiens

>  <Target Type>  (192) 
SINGLE PROTEIN

>  <Document>  (192) 
CHEMBL1201862

>  <Source>  (192) 
PubChem BioAssays

>  <Max Phase>  (192) 
0

>  <#Ro5 Violations>  (192) 
1

>  <Molecular Weight>  (192) 
505.63

>  <Ligand Efficiency BEI>  (192) 
nan

>  <Ligand Efficiency LE>  (192) 
nan

>  <Ligand Efficiency LLE>  (192) 
nan

>  <Ligand Efficiency SEI>  (192) 
nan

>  <ALogP>  (192) 
4.4

>  <Assay Organism>  (192) 
nan

>  <Assay Tissue ChEMBL ID>  (192) 
nan

>  <Assay Tissue Name>  (192) 
nan

>  <Assay Cell Type>  (192) 
nan

>  <Assay Subcellular Fraction>  (192) 
nan

>  <Organism Tax ID>  (192) 
9606

>  <BAO Format ID>  (192) 
BAO_0000019

>  <Published Type>  (192) 
nan

>  <Published Relation>  (192) 
nan

>  <Published Value>  (192) 
nan

>  <Published Units>  (192) 
nan

>  <Canonical Smiles>  (192) 
Cc1cccc(NC(=O)Nc2ccc(cc2)c3csc4c(cnc(N)c34)C#CCNS(=O)(=O)C)c1

>  <Data Validity Comment>  (192) 
nan

>  <Document Journal>  (192) 
nan

>  <Document Year>  (192) 
nan

>  <SRC ID>  (192) 
7

>  <UO Units>  (192) 
UO_0000065

>  <Potential Duplicate>  (192) 
False

>  <Class>  (192) 
0

$$$$

     RDKit          2D

 27 30  0  0  0  0  0  0  0  0999 V2000
    3.7500  -14.2894    0.0000 C   0  0  0  0  0  0  0  0  0  0  0  0
    3.0000  -12.9904    0.0000 C   0  0  0  0  0  0  0  0  0  0  0  0
    1.5000  -12.9904    0.0000 C   0  0  0  0  0  0  0  0  0  0  0  0
    0.7500  -11.6913    0.0000 C   0  0  0  0  0  0  0  0  0  0  0  0
    1.5000  -10.3923    0.0000 C   0  0  0  0  0  0  0  0  0  0  0  0
    3.0000  -10.3923    0.0000 C   0  0  0  0  0  0  0  0  0  0  0  0
    3.7500   -9.0933    0.0000 N   0  0  0  0  0  0  0  0  0  0  0  0
    3.0000   -7.7942    0.0000 C   0  0  0  0  0  0  0  0  0  0  0  0
    1.5000   -7.7942    0.0000 O   0  0  0  0  0  0  0  0  0  0  0  0
    3.7500   -6.4952    0.0000 C   0  0  0  0  0  0  0  0  0  0  0  0
    3.0000   -5.1962    0.0000 C   0  0  0  0  0  0  0  0  0  0  0  0
    3.7500   -3.8971    0.0000 C   0  0  0  0  0  0  0  0  0  0  0  0
    3.0000   -2.5981    0.0000 C   0  0  0  0  0  0  0  0  0  0  0  0
    1.5000   -2.5981    0.0000 C   0  0  0  0  0  0  0  0  0  0  0  0
    0.7500   -3.8971    0.0000 C   0  0  0  0  0  0  0  0  0  0  0  0
    1.5000   -5.1962    0.0000 C   0  0  0  0  0  0  0  0  0  0  0  0
    0.7500   -1.2990    0.0000 C   0  0  0  0  0  0  0  0  0  0  0  0
    1.5000    0.0000    0.0000 C   0  0  0  0  0  0  0  0  0  0  0  0
    0.7500    1.2990    0.0000 C   0  0  0  0  0  0  0  0  0  0  0  0
   -0.7500    1.2990    0.0000 C   0  0  0  0  0  0  0  0  0  0  0  0
   -1.5000    0.0000    0.0000 C   0  0  0  0  0  0  0  0  0  0  0  0
   -2.9672   -0.3119    0.0000 N   0  0  0  0  0  0  0  0  0  0  0  0
   -3.1240   -1.8037    0.0000 N   0  0  0  0  0  0  0  0  0  0  0  0
   -1.7537   -2.4138    0.0000 C   0  0  0  0  0  0  0  0  0  0  0  0
   -1.4418   -3.8810    0.0000 N   0  0  0  0  0  0  0  0  0  0  0  0
   -0.7500   -1.2990    0.0000 C   0  0  0  0  0  0  0  0  0  0  0  0
    3.7500  -11.6913    0.0000 C   0  0  0  0  0  0  0  0  0  0  0  0
  1  2  1  0
  2  3  2  0
  3  4  1  0
  4  5  2  0
  5  6  1  0
  6  7  1  0
  7  8  1  0
  8  9  2  0
  8 10  1  0
 10 11  1  0
 11 12  2  0
 12 13  1  0
 13 14  2  0
 14 15  1  0
 15 16  2  0
 14 17  1  0
 17 18  2  0
 18 19  1  0
 19 20  2  0
 20 21  1  0
 21 22  1  0
 22 23  1  0
 23 24  2  0
 24 25  1  0
 24 26  1  0
  6 27  2  0
 27  2  1  0
 16 11  1  0
 26 17  1  0
 26 21  2  0
M  END
>  <Molecule>  (193) 
CHEMBL1964307

>  <Standard Type>  (193) 
Ki

>  <Standard Relation>  (193) 
=

>  <Standard Value>  (193) 
1000.0

>  <Standard Units>  (193) 
nM

>  <pChEMBL Value>  (193) 
6.0

>  <Comment>  (193) 
active

>  <Compound Key>  (193) 
SID103905033

>  <Assay>  (193) 
CHEMBL1963742

>  <Assay Description>  (193) 
PUBCHEM_BIOASSAY: Navigating the Kinome. (Class of assay: other) Panel member name: JAK3

>  <BAO Format>  (193) 
assay format

>  <Target>  (193) 
CHEMBL2148

>  <Target Pref. Name>  (193) 
Tyrosine-protein kinase JAK3

>  <Target Organism>  (193) 
Homo sapiens

>  <Target Type>  (193) 
SINGLE PROTEIN

>  <Document>  (193) 
CHEMBL1201862

>  <Source>  (193) 
PubChem BioAssays

>  <Max Phase>  (193) 
0

>  <#Ro5 Violations>  (193) 
0

>  <Molecular Weight>  (193) 
356.43

>  <Ligand Efficiency BEI>  (193) 
nan

>  <Ligand Efficiency LE>  (193) 
nan

>  <Ligand Efficiency LLE>  (193) 
nan

>  <Ligand Efficiency SEI>  (193) 
nan

>  <ALogP>  (193) 
4.3

>  <Assay Organism>  (193) 
nan

>  <Assay Tissue ChEMBL ID>  (193) 
nan

>  <Assay Tissue Name>  (193) 
nan

>  <Assay Cell Type>  (193) 
nan

>  <Assay Subcellular Fraction>  (193) 
nan

>  <Organism Tax ID>  (193) 
9606

>  <BAO Format ID>  (193) 
BAO_0000019

>  <Published Type>  (193) 
nan

>  <Published Relation>  (193) 
nan

>  <Published Value>  (193) 
nan

>  <Published Units>  (193) 
nan

>  <Canonical Smiles>  (193) 
Cc1cccc(NC(=O)Cc2ccc(cc2)c3cccc4[nH]nc(N)c34)c1

>  <Data Validity Comment>  (193) 
nan

>  <Document Journal>  (193) 
nan

>  <Document Year>  (193) 
nan

>  <SRC ID>  (193) 
7

>  <UO Units>  (193) 
UO_0000065

>  <Potential Duplicate>  (193) 
False

>  <Class>  (193) 
1

$$$$

     RDKit          2D

 20 22  0  0  0  0  0  0  0  0999 V2000
    3.7500   -1.2990    0.0000 N   0  0  0  0  0  0  0  0  0  0  0  0
    3.0000    0.0000    0.0000 C   0  0  0  0  0  0  0  0  0  0  0  0
    3.7500    1.2990    0.0000 O   0  0  0  0  0  0  0  0  0  0  0  0
    1.5000    0.0000    0.0000 C   0  0  0  0  0  0  0  0  0  0  0  0
    0.7500   -1.2990    0.0000 C   0  0  0  0  0  0  0  0  0  0  0  0
   -0.7500   -1.2990    0.0000 C   0  0  0  0  0  0  0  0  0  0  0  0
   -1.5000    0.0000    0.0000 C   0  0  0  0  0  0  0  0  0  0  0  0
   -0.7500    1.2990    0.0000 C   0  0  0  0  0  0  0  0  0  0  0  0
   -1.6852    2.4718    0.0000 N   0  0  0  0  0  0  0  0  0  0  0  0
   -1.3515    3.9342    0.0000 C   0  0  0  0  0  0  0  0  0  0  0  0
   -2.5242    4.8694    0.0000 O   0  0  0  0  0  0  0  0  0  0  0  0
    0.0000    4.5850    0.0000 C   0  0  0  0  0  0  0  0  0  0  0  0
   -0.1121    6.0808    0.0000 C   0  0  0  0  0  0  0  0  0  0  0  0
    1.1273    6.9258    0.0000 C   0  0  0  0  0  0  0  0  0  0  0  0
    1.0152    8.4216    0.0000 Cl  0  0  0  0  0  0  0  0  0  0  0  0
    2.4787    6.2750    0.0000 N   0  0  0  0  0  0  0  0  0  0  0  0
    2.5908    4.7792    0.0000 N   0  0  0  0  0  0  0  0  0  0  0  0
    1.3515    3.9342    0.0000 C   0  0  0  0  0  0  0  0  0  0  0  0
    1.6852    2.4718    0.0000 N   0  0  0  0  0  0  0  0  0  0  0  0
    0.7500    1.2990    0.0000 C   0  0  0  0  0  0  0  0  0  0  0  0
  1  2  1  0
  2  3  2  0
  2  4  1  0
  4  5  2  0
  5  6  1  0
  6  7  2  0
  7  8  1  0
  8  9  1  0
  9 10  1  0
 10 11  2  0
 10 12  1  0
 12 13  2  0
 13 14  1  0
 14 15  1  0
 14 16  2  0
 16 17  1  0
 17 18  2  0
 18 19  1  0
 19 20  1  0
 20  4  1  0
 20  8  2  0
 18 12  1  0
M  END
>  <Molecule>  (194) 
CHEMBL1968070

>  <Standard Type>  (194) 
Ki

>  <Standard Relation>  (194) 
>

>  <Standard Value>  (194) 
1584.89

>  <Standard Units>  (194) 
nM

>  <pChEMBL Value>  (194) 
nan

>  <Comment>  (194) 
inactive

>  <Compound Key>  (194) 
SID103905636

>  <Assay>  (194) 
CHEMBL1963742

>  <Assay Description>  (194) 
PUBCHEM_BIOASSAY: Navigating the Kinome. (Class of assay: other) Panel member name: JAK3

>  <BAO Format>  (194) 
assay format

>  <Target>  (194) 
CHEMBL2148

>  <Target Pref. Name>  (194) 
Tyrosine-protein kinase JAK3

>  <Target Organism>  (194) 
Homo sapiens

>  <Target Type>  (194) 
SINGLE PROTEIN

>  <Document>  (194) 
CHEMBL1201862

>  <Source>  (194) 
PubChem BioAssays

>  <Max Phase>  (194) 
0

>  <#Ro5 Violations>  (194) 
0

>  <Molecular Weight>  (194) 
289.68

>  <Ligand Efficiency BEI>  (194) 
nan

>  <Ligand Efficiency LE>  (194) 
nan

>  <Ligand Efficiency LLE>  (194) 
nan

>  <Ligand Efficiency SEI>  (194) 
nan

>  <ALogP>  (194) 
1.54

>  <Assay Organism>  (194) 
nan

>  <Assay Tissue ChEMBL ID>  (194) 
nan

>  <Assay Tissue Name>  (194) 
nan

>  <Assay Cell Type>  (194) 
nan

>  <Assay Subcellular Fraction>  (194) 
nan

>  <Organism Tax ID>  (194) 
9606

>  <BAO Format ID>  (194) 
BAO_0000019

>  <Published Type>  (194) 
nan

>  <Published Relation>  (194) 
nan

>  <Published Value>  (194) 
nan

>  <Published Units>  (194) 
nan

>  <Canonical Smiles>  (194) 
NC(=O)c1cccc2NC(=O)c3cc(Cl)nnc3Nc12

>  <Data Validity Comment>  (194) 
nan

>  <Document Journal>  (194) 
nan

>  <Document Year>  (194) 
nan

>  <SRC ID>  (194) 
7

>  <UO Units>  (194) 
UO_0000065

>  <Potential Duplicate>  (194) 
False

>  <Class>  (194) 
0

$$$$

     RDKit          2D

 31 35  0  0  0  0  0  0  0  0999 V2000
   -6.4289   -8.5179    0.0000 Cl  0  0  0  0  0  0  0  0  0  0  0  0
   -6.1170   -7.0506    0.0000 C   0  0  0  0  0  0  0  0  0  0  0  0
   -7.2317   -6.0469    0.0000 C   0  0  0  0  0  0  0  0  0  0  0  0
   -6.9199   -4.5797    0.0000 C   0  0  0  0  0  0  0  0  0  0  0  0
   -5.4933   -4.1162    0.0000 C   0  0  0  0  0  0  0  0  0  0  0  0
   -4.3786   -5.1199    0.0000 C   0  0  0  0  0  0  0  0  0  0  0  0
   -4.6904   -6.5871    0.0000 C   0  0  0  0  0  0  0  0  0  0  0  0
   -2.9520   -4.6564    0.0000 C   0  0  0  0  0  0  0  0  0  0  0  0
   -1.8373   -5.6601    0.0000 O   0  0  0  0  0  0  0  0  0  0  0  0
   -2.6401   -3.1891    0.0000 N   0  0  0  0  0  0  0  0  0  0  0  0
   -1.2135   -2.7256    0.0000 C   0  0  0  0  0  0  0  0  0  0  0  0
    0.0000   -3.6073    0.0000 N   0  0  0  0  0  0  0  0  0  0  0  0
    1.2135   -2.7256    0.0000 N   0  0  0  0  0  0  0  0  0  0  0  0
    0.7500   -1.2990    0.0000 C   0  0  0  0  0  0  0  0  0  0  0  0
    1.5000    0.0000    0.0000 C   0  0  0  0  0  0  0  0  0  0  0  0
    0.7500    1.2990    0.0000 C   0  0  0  0  0  0  0  0  0  0  0  0
   -0.7500    1.2990    0.0000 C   0  0  0  0  0  0  0  0  0  0  0  0
   -1.5000    0.0000    0.0000 C   0  0  0  0  0  0  0  0  0  0  0  0
   -0.7500   -1.2990    0.0000 C   0  0  0  0  0  0  0  0  0  0  0  0
   -1.5000    2.5981    0.0000 C   0  0  0  0  0  0  0  0  0  0  0  0
   -2.9918    2.7549    0.0000 C   0  0  0  0  0  0  0  0  0  0  0  0
   -3.3037    4.2221    0.0000 N   0  0  0  0  0  0  0  0  0  0  0  0
   -4.6740    4.8322    0.0000 C   0  0  0  0  0  0  0  0  0  0  0  0
   -4.8308    6.3240    0.0000 C   0  0  0  0  0  0  0  0  0  0  0  0
   -3.6172    7.2057    0.0000 C   0  0  0  0  0  0  0  0  0  0  0  0
   -3.7740    8.6974    0.0000 C   0  0  0  0  0  0  0  0  0  0  0  0
   -5.1443    9.3075    0.0000 C   0  0  0  0  0  0  0  0  0  0  0  0
   -6.3579    8.4259    0.0000 C   0  0  0  0  0  0  0  0  0  0  0  0
   -6.2011    6.9341    0.0000 C   0  0  0  0  0  0  0  0  0  0  0  0
   -2.0046    4.9721    0.0000 N   0  0  0  0  0  0  0  0  0  0  0  0
   -0.8899    3.9684    0.0000 N   0  0  0  0  0  0  0  0  0  0  0  0
  1  2  1  0
  2  3  2  0
  3  4  1  0
  4  5  2  0
  5  6  1  0
  6  7  2  0
  6  8  1  0
  8  9  2  0
  8 10  1  0
 10 11  1  0
 11 12  2  0
 12 13  1  0
 13 14  1  0
 14 15  2  0
 15 16  1  0
 16 17  2  0
 17 18  1  0
 18 19  2  0
 17 20  1  0
 20 21  2  0
 21 22  1  0
 22 23  1  0
 23 24  1  0
 24 25  2  0
 25 26  1  0
 26 27  2  0
 27 28  1  0
 28 29  2  0
 22 30  1  0
 30 31  2  0
  7  2  1  0
 19 11  1  0
 19 14  1  0
 31 20  1  0
 29 24  1  0
M  END
>  <Molecule>  (195) 
CHEMBL1983595

>  <Standard Type>  (195) 
Ki

>  <Standard Relation>  (195) 
>

>  <Standard Value>  (195) 
5011.87

>  <Standard Units>  (195) 
nM

>  <pChEMBL Value>  (195) 
nan

>  <Comment>  (195) 
inactive

>  <Compound Key>  (195) 
SID103904540

>  <Assay>  (195) 
CHEMBL1963742

>  <Assay Description>  (195) 
PUBCHEM_BIOASSAY: Navigating the Kinome. (Class of assay: other) Panel member name: JAK3

>  <BAO Format>  (195) 
assay format

>  <Target>  (195) 
CHEMBL2148

>  <Target Pref. Name>  (195) 
Tyrosine-protein kinase JAK3

>  <Target Organism>  (195) 
Homo sapiens

>  <Target Type>  (195) 
SINGLE PROTEIN

>  <Document>  (195) 
CHEMBL1201862

>  <Source>  (195) 
PubChem BioAssays

>  <Max Phase>  (195) 
0

>  <#Ro5 Violations>  (195) 
0

>  <Molecular Weight>  (195) 
428.88

>  <Ligand Efficiency BEI>  (195) 
nan

>  <Ligand Efficiency LE>  (195) 
nan

>  <Ligand Efficiency LLE>  (195) 
nan

>  <Ligand Efficiency SEI>  (195) 
nan

>  <ALogP>  (195) 
4.78

>  <Assay Organism>  (195) 
nan

>  <Assay Tissue ChEMBL ID>  (195) 
nan

>  <Assay Tissue Name>  (195) 
nan

>  <Assay Cell Type>  (195) 
nan

>  <Assay Subcellular Fraction>  (195) 
nan

>  <Organism Tax ID>  (195) 
9606

>  <BAO Format ID>  (195) 
BAO_0000019

>  <Published Type>  (195) 
nan

>  <Published Relation>  (195) 
nan

>  <Published Value>  (195) 
nan

>  <Published Units>  (195) 
nan

>  <Canonical Smiles>  (195) 
Clc1cccc(c1)C(=O)Nc2n[nH]c3ccc(cc23)c4cn(Cc5ccccc5)nn4

>  <Data Validity Comment>  (195) 
nan

>  <Document Journal>  (195) 
nan

>  <Document Year>  (195) 
nan

>  <SRC ID>  (195) 
7

>  <UO Units>  (195) 
UO_0000065

>  <Potential Duplicate>  (195) 
False

>  <Class>  (195) 
0

$$$$

     RDKit          2D

 17 18  0  0  0  0  0  0  0  0999 V2000
    5.2500   -1.2990    0.0000 C   0  0  0  0  0  0  0  0  0  0  0  0
    3.7500   -1.2990    0.0000 N   0  0  0  0  0  0  0  0  0  0  0  0
    3.0000   -2.5981    0.0000 C   0  0  0  0  0  0  0  0  0  0  0  0
    3.0000    0.0000    0.0000 C   0  0  0  0  0  0  0  0  0  0  0  0
    1.5000    0.0000    0.0000 C   0  0  0  0  0  0  0  0  0  0  0  0
    0.7500   -1.2990    0.0000 C   0  0  0  0  0  0  0  0  0  0  0  0
    1.5000   -2.5981    0.0000 O   0  0  0  0  0  0  0  0  0  0  0  0
   -0.7500   -1.2990    0.0000 C   0  0  0  0  0  0  0  0  0  0  0  0
   -1.5000   -2.5981    0.0000 N   0  0  0  0  0  0  0  0  0  0  0  0
   -3.0000   -2.5981    0.0000 C   0  0  0  0  0  0  0  0  0  0  0  0
   -3.7500   -1.2990    0.0000 C   0  0  0  0  0  0  0  0  0  0  0  0
   -3.0000    0.0000    0.0000 C   0  0  0  0  0  0  0  0  0  0  0  0
   -3.7500    1.2990    0.0000 O   0  0  0  0  0  0  0  0  0  0  0  0
   -1.5000    0.0000    0.0000 N   0  0  0  0  0  0  0  0  0  0  0  0
   -0.7500    1.2990    0.0000 C   0  0  0  0  0  0  0  0  0  0  0  0
    0.7500    1.2990    0.0000 C   0  0  0  0  0  0  0  0  0  0  0  0
   -3.7500   -3.8971    0.0000 C   0  0  0  0  0  0  0  0  0  0  0  0
  1  2  1  0
  2  3  1  0
  2  4  1  0
  4  5  1  0
  5  6  2  0
  6  7  1  0
  6  8  1  0
  8  9  2  0
  9 10  1  0
 10 11  2  0
 11 12  1  0
 12 13  2  0
 12 14  1  0
 14 15  1  0
 15 16  2  0
 10 17  1  0
 16  5  1  0
 14  8  1  0
M  END
>  <Molecule>  (196) 
CHEMBL1988581

>  <Standard Type>  (196) 
Ki

>  <Standard Relation>  (196) 
=

>  <Standard Value>  (196) 
199.53

>  <Standard Units>  (196) 
nM

>  <pChEMBL Value>  (196) 
6.7

>  <Comment>  (196) 
active

>  <Compound Key>  (196) 
SID103905639

>  <Assay>  (196) 
CHEMBL1963742

>  <Assay Description>  (196) 
PUBCHEM_BIOASSAY: Navigating the Kinome. (Class of assay: other) Panel member name: JAK3

>  <BAO Format>  (196) 
assay format

>  <Target>  (196) 
CHEMBL2148

>  <Target Pref. Name>  (196) 
Tyrosine-protein kinase JAK3

>  <Target Organism>  (196) 
Homo sapiens

>  <Target Type>  (196) 
SINGLE PROTEIN

>  <Document>  (196) 
CHEMBL1201862

>  <Source>  (196) 
PubChem BioAssays

>  <Max Phase>  (196) 
0

>  <#Ro5 Violations>  (196) 
0

>  <Molecular Weight>  (196) 
233.27

>  <Ligand Efficiency BEI>  (196) 
nan

>  <Ligand Efficiency LE>  (196) 
nan

>  <Ligand Efficiency LLE>  (196) 
nan

>  <Ligand Efficiency SEI>  (196) 
nan

>  <ALogP>  (196) 
0.77

>  <Assay Organism>  (196) 
nan

>  <Assay Tissue ChEMBL ID>  (196) 
nan

>  <Assay Tissue Name>  (196) 
nan

>  <Assay Cell Type>  (196) 
nan

>  <Assay Subcellular Fraction>  (196) 
nan

>  <Organism Tax ID>  (196) 
9606

>  <BAO Format ID>  (196) 
BAO_0000019

>  <Published Type>  (196) 
nan

>  <Published Relation>  (196) 
nan

>  <Published Value>  (196) 
nan

>  <Published Units>  (196) 
nan

>  <Canonical Smiles>  (196) 
CN(C)CC1=C(O)C2=NC(=CC(=O)N2C=C1)C

>  <Data Validity Comment>  (196) 
nan

>  <Document Journal>  (196) 
nan

>  <Document Year>  (196) 
nan

>  <SRC ID>  (196) 
7

>  <UO Units>  (196) 
UO_0000065

>  <Potential Duplicate>  (196) 
False

>  <Class>  (196) 
1

$$$$

     RDKit          2D

 21 24  0  0  0  0  0  0  0  0999 V2000
   -4.4752    7.7937    0.0000 C   0  0  0  0  0  0  0  0  0  0  0  0
   -3.3605    8.7974    0.0000 C   0  0  0  0  0  0  0  0  0  0  0  0
   -1.9339    8.3339    0.0000 C   0  0  0  0  0  0  0  0  0  0  0  0
   -0.8192    9.3376    0.0000 C   0  0  0  0  0  0  0  0  0  0  0  0
   -1.1311   10.8048    0.0000 C   0  0  0  0  0  0  0  0  0  0  0  0
   -2.5577   11.2683    0.0000 C   0  0  0  0  0  0  0  0  0  0  0  0
   -3.6724   10.2646    0.0000 C   0  0  0  0  0  0  0  0  0  0  0  0
   -4.1634    6.3265    0.0000 C   0  0  0  0  0  0  0  0  0  0  0  0
   -2.7931    5.7164    0.0000 C   0  0  0  0  0  0  0  0  0  0  0  0
   -2.9499    4.2246    0.0000 C   0  0  0  0  0  0  0  0  0  0  0  0
   -4.4171    3.9127    0.0000 O   0  0  0  0  0  0  0  0  0  0  0  0
   -5.1671    5.2118    0.0000 N   0  0  0  0  0  0  0  0  0  0  0  0
   -1.8351    3.2209    0.0000 C   0  0  0  0  0  0  0  0  0  0  0  0
   -0.4086    3.6844    0.0000 C   0  0  0  0  0  0  0  0  0  0  0  0
    0.7062    2.6807    0.0000 C   0  0  0  0  0  0  0  0  0  0  0  0
    0.3943    1.2135    0.0000 C   0  0  0  0  0  0  0  0  0  0  0  0
    1.2760    0.0000    0.0000 N   0  0  0  0  0  0  0  0  0  0  0  0
    0.3943   -1.2135    0.0000 N   0  0  0  0  0  0  0  0  0  0  0  0
   -1.0323   -0.7500    0.0000 C   0  0  0  0  0  0  0  0  0  0  0  0
   -1.0323    0.7500    0.0000 C   0  0  0  0  0  0  0  0  0  0  0  0
   -2.1470    1.7537    0.0000 C   0  0  0  0  0  0  0  0  0  0  0  0
  1  2  1  0
  2  3  2  0
  3  4  1  0
  4  5  2  0
  5  6  1  0
  6  7  2  0
  1  8  1  0
  8  9  1  0
  9 10  2  0
 10 11  1  0
 11 12  1  0
 10 13  1  0
 13 14  2  0
 14 15  1  0
 15 16  2  0
 16 17  1  0
 17 18  1  0
 18 19  2  0
 19 20  1  0
 20 21  2  0
  7  2  1  0
 12  8  2  0
 21 13  1  0
 20 16  1  0
M  END
>  <Molecule>  (197) 
CHEMBL1682357

>  <Standard Type>  (197) 
Ki

>  <Standard Relation>  (197) 
>

>  <Standard Value>  (197) 
1584.89

>  <Standard Units>  (197) 
nM

>  <pChEMBL Value>  (197) 
nan

>  <Comment>  (197) 
inactive

>  <Compound Key>  (197) 
SID103904525

>  <Assay>  (197) 
CHEMBL1963742

>  <Assay Description>  (197) 
PUBCHEM_BIOASSAY: Navigating the Kinome. (Class of assay: other) Panel member name: JAK3

>  <BAO Format>  (197) 
assay format

>  <Target>  (197) 
CHEMBL2148

>  <Target Pref. Name>  (197) 
Tyrosine-protein kinase JAK3

>  <Target Organism>  (197) 
Homo sapiens

>  <Target Type>  (197) 
SINGLE PROTEIN

>  <Document>  (197) 
CHEMBL1201862

>  <Source>  (197) 
PubChem BioAssays

>  <Max Phase>  (197) 
0

>  <#Ro5 Violations>  (197) 
0

>  <Molecular Weight>  (197) 
275.31

>  <Ligand Efficiency BEI>  (197) 
nan

>  <Ligand Efficiency LE>  (197) 
nan

>  <Ligand Efficiency LLE>  (197) 
nan

>  <Ligand Efficiency SEI>  (197) 
nan

>  <ALogP>  (197) 
3.81

>  <Assay Organism>  (197) 
nan

>  <Assay Tissue ChEMBL ID>  (197) 
nan

>  <Assay Tissue Name>  (197) 
nan

>  <Assay Cell Type>  (197) 
nan

>  <Assay Subcellular Fraction>  (197) 
nan

>  <Organism Tax ID>  (197) 
9606

>  <BAO Format ID>  (197) 
BAO_0000019

>  <Published Type>  (197) 
nan

>  <Published Relation>  (197) 
nan

>  <Published Value>  (197) 
nan

>  <Published Units>  (197) 
nan

>  <Canonical Smiles>  (197) 
C(c1ccccc1)c2cc(on2)c3ccc4[nH]ncc4c3

>  <Data Validity Comment>  (197) 
nan

>  <Document Journal>  (197) 
nan

>  <Document Year>  (197) 
nan

>  <SRC ID>  (197) 
7

>  <UO Units>  (197) 
UO_0000065

>  <Potential Duplicate>  (197) 
False

>  <Class>  (197) 
0

$$$$

     RDKit          2D

 31 34  0  0  0  0  0  0  0  0999 V2000
    3.0000    0.0000    0.0000 C   0  0  0  0  0  0  0  0  0  0  0  0
    1.5000    0.0000    0.0000 C   0  0  0  0  0  0  0  0  0  0  0  0
    0.7500   -1.2990    0.0000 N   0  0  0  0  0  0  0  0  0  0  0  0
   -0.7500   -1.2990    0.0000 C   0  0  0  0  0  0  0  0  0  0  0  0
   -1.5000    0.0000    0.0000 C   0  0  0  0  0  0  0  0  0  0  0  0
   -0.7500    1.2990    0.0000 N   0  0  0  0  0  0  0  0  0  0  0  0
   -1.2135    2.7256    0.0000 C   0  0  0  0  0  0  0  0  0  0  0  0
   -2.6401    3.1891    0.0000 C   0  0  0  0  0  0  0  0  0  0  0  0
   -2.9520    4.6564    0.0000 C   0  0  0  0  0  0  0  0  0  0  0  0
   -4.3786    5.1199    0.0000 C   0  0  0  0  0  0  0  0  0  0  0  0
   -5.4933    4.1162    0.0000 N   0  0  0  0  0  0  0  0  0  0  0  0
   -5.1814    2.6490    0.0000 C   0  0  0  0  0  0  0  0  0  0  0  0
   -6.2961    1.6453    0.0000 N   0  0  0  0  0  0  0  0  0  0  0  0
   -7.7227    2.1088    0.0000 C   0  0  0  0  0  0  0  0  0  0  0  0
   -8.8374    1.1051    0.0000 C   0  0  0  0  0  0  0  0  0  0  0  0
  -10.2640    1.5686    0.0000 C   0  0  0  0  0  0  0  0  0  0  0  0
   -9.8005    2.9952    0.0000 C   0  0  0  0  0  0  0  0  0  0  0  0
  -10.7275    0.1421    0.0000 C   0  0  0  0  0  0  0  0  0  0  0  0
  -11.6906    2.0322    0.0000 O   0  0  0  0  0  0  0  0  0  0  0  0
   -3.7548    2.1855    0.0000 N   0  0  0  0  0  0  0  0  0  0  0  0
   -0.0000    3.6073    0.0000 C   0  0  0  0  0  0  0  0  0  0  0  0
    1.2135    2.7256    0.0000 N   0  0  0  0  0  0  0  0  0  0  0  0
    0.7500    1.2990    0.0000 C   0  0  0  0  0  0  0  0  0  0  0  0
   -0.0000    5.1073    0.0000 C   0  0  0  0  0  0  0  0  0  0  0  0
   -1.2990    5.8573    0.0000 C   0  0  0  0  0  0  0  0  0  0  0  0
   -1.2990    7.3573    0.0000 C   0  0  0  0  0  0  0  0  0  0  0  0
   -0.0000    8.1073    0.0000 C   0  0  0  0  0  0  0  0  0  0  0  0
   -0.0000    9.6073    0.0000 F   0  0  0  0  0  0  0  0  0  0  0  0
    1.2990    7.3573    0.0000 C   0  0  0  0  0  0  0  0  0  0  0  0
    1.2990    5.8573    0.0000 C   0  0  0  0  0  0  0  0  0  0  0  0
    2.5981    5.1073    0.0000 F   0  0  0  0  0  0  0  0  0  0  0  0
  1  2  1  0
  2  3  2  0
  3  4  1  0
  4  5  2  0
  5  6  1  0
  6  7  1  0
  7  8  1  0
  8  9  2  0
  9 10  1  0
 10 11  2  0
 11 12  1  0
 12 13  1  0
 13 14  1  0
 14 15  1  0
 15 16  1  0
 16 17  1  0
 16 18  1  0
 16 19  1  0
 12 20  2  0
  7 21  2  0
 21 22  1  0
 22 23  2  0
 21 24  1  0
 24 25  2  0
 25 26  1  0
 26 27  2  0
 27 28  1  0
 27 29  1  0
 29 30  2  0
 30 31  1  0
 23  2  1  0
 23  6  1  0
 20  8  1  0
 30 24  1  0
M  END
>  <Molecule>  (198) 
CHEMBL1978200

>  <Standard Type>  (198) 
Ki

>  <Standard Relation>  (198) 
>

>  <Standard Value>  (198) 
1584.89

>  <Standard Units>  (198) 
nM

>  <pChEMBL Value>  (198) 
nan

>  <Comment>  (198) 
inactive

>  <Compound Key>  (198) 
SID103904764

>  <Assay>  (198) 
CHEMBL1963742

>  <Assay Description>  (198) 
PUBCHEM_BIOASSAY: Navigating the Kinome. (Class of assay: other) Panel member name: JAK3

>  <BAO Format>  (198) 
assay format

>  <Target>  (198) 
CHEMBL2148

>  <Target Pref. Name>  (198) 
Tyrosine-protein kinase JAK3

>  <Target Organism>  (198) 
Homo sapiens

>  <Target Type>  (198) 
SINGLE PROTEIN

>  <Document>  (198) 
CHEMBL1201862

>  <Source>  (198) 
PubChem BioAssays

>  <Max Phase>  (198) 
0

>  <#Ro5 Violations>  (198) 
0

>  <Molecular Weight>  (198) 
424.46

>  <Ligand Efficiency BEI>  (198) 
nan

>  <Ligand Efficiency LE>  (198) 
nan

>  <Ligand Efficiency LLE>  (198) 
nan

>  <Ligand Efficiency SEI>  (198) 
nan

>  <ALogP>  (198) 
4.01

>  <Assay Organism>  (198) 
nan

>  <Assay Tissue ChEMBL ID>  (198) 
nan

>  <Assay Tissue Name>  (198) 
nan

>  <Assay Cell Type>  (198) 
nan

>  <Assay Subcellular Fraction>  (198) 
nan

>  <Organism Tax ID>  (198) 
9606

>  <BAO Format ID>  (198) 
BAO_0000019

>  <Published Type>  (198) 
nan

>  <Published Relation>  (198) 
nan

>  <Published Value>  (198) 
nan

>  <Published Units>  (198) 
nan

>  <Canonical Smiles>  (198) 
Cc1nccn2c(c3ccnc(NCCC(C)(C)O)n3)c(nc12)c4ccc(F)cc4F

>  <Data Validity Comment>  (198) 
nan

>  <Document Journal>  (198) 
nan

>  <Document Year>  (198) 
nan

>  <SRC ID>  (198) 
7

>  <UO Units>  (198) 
UO_0000065

>  <Potential Duplicate>  (198) 
False

>  <Class>  (198) 
0

$$$$

     RDKit          2D

 26 28  0  0  0  0  0  0  0  0999 V2000
    0.7500   -6.4952    0.0000 O   0  0  0  0  0  0  0  0  0  0  0  0
    1.5000   -5.1962    0.0000 C   0  0  0  0  0  0  0  0  0  0  0  0
    0.7500   -3.8971    0.0000 C   0  0  0  0  0  0  0  0  0  0  0  0
    1.5000   -2.5981    0.0000 C   0  0  0  0  0  0  0  0  0  0  0  0
    0.7500   -1.2990    0.0000 C   0  0  0  0  0  0  0  0  0  0  0  0
    1.5000    0.0000    0.0000 C   0  0  0  0  0  0  0  0  0  0  0  0
    0.7500    1.2990    0.0000 C   0  0  0  0  0  0  0  0  0  0  0  0
   -0.7500    1.2990    0.0000 C   0  0  0  0  0  0  0  0  0  0  0  0
   -1.5000    2.5981    0.0000 Cl  0  0  0  0  0  0  0  0  0  0  0  0
   -1.5000    0.0000    0.0000 C   0  0  0  0  0  0  0  0  0  0  0  0
   -0.7500   -1.2990    0.0000 C   0  0  0  0  0  0  0  0  0  0  0  0
   -0.7500   -3.8971    0.0000 N   0  0  0  0  0  0  0  0  0  0  0  0
   -1.5000   -5.1962    0.0000 C   0  0  0  0  0  0  0  0  0  0  0  0
   -0.7500   -6.4952    0.0000 O   0  0  0  0  0  0  0  0  0  0  0  0
   -3.0000   -5.1962    0.0000 C   0  0  0  0  0  0  0  0  0  0  0  0
   -3.7500   -3.8971    0.0000 C   0  0  0  0  0  0  0  0  0  0  0  0
   -5.2500   -3.8971    0.0000 C   0  0  0  0  0  0  0  0  0  0  0  0
   -6.0000   -5.1962    0.0000 C   0  0  0  0  0  0  0  0  0  0  0  0
   -5.2500   -6.4952    0.0000 C   0  0  0  0  0  0  0  0  0  0  0  0
   -3.7500   -6.4952    0.0000 C   0  0  0  0  0  0  0  0  0  0  0  0
   -7.5000   -5.1962    0.0000 C   0  0  0  0  0  0  0  0  0  0  0  0
   -8.2500   -3.8971    0.0000 C   0  0  0  0  0  0  0  0  0  0  0  0
   -9.7500   -3.8971    0.0000 C   0  0  0  0  0  0  0  0  0  0  0  0
  -10.5000   -5.1962    0.0000 N   0  0  0  0  0  0  0  0  0  0  0  0
   -9.7500   -6.4952    0.0000 C   0  0  0  0  0  0  0  0  0  0  0  0
   -8.2500   -6.4952    0.0000 C   0  0  0  0  0  0  0  0  0  0  0  0
  1  2  1  0
  2  3  1  0
  3  4  1  0
  4  5  1  0
  5  6  2  0
  6  7  1  0
  7  8  2  0
  8  9  1  0
  8 10  1  0
 10 11  2  0
  3 12  1  0
 12 13  1  0
 13 14  2  0
 13 15  1  0
 15 16  2  0
 16 17  1  0
 17 18  2  0
 18 19  1  0
 19 20  2  0
 18 21  1  0
 21 22  2  0
 22 23  1  0
 23 24  2  0
 24 25  1  0
 25 26  2  0
 11  5  1  0
 20 15  1  0
 26 21  1  0
M  END
>  <Molecule>  (199) 
CHEMBL1996931

>  <Standard Type>  (199) 
Ki

>  <Standard Relation>  (199) 
>

>  <Standard Value>  (199) 
1584.89

>  <Standard Units>  (199) 
nM

>  <pChEMBL Value>  (199) 
nan

>  <Comment>  (199) 
inactive

>  <Compound Key>  (199) 
SID103904574

>  <Assay>  (199) 
CHEMBL1963742

>  <Assay Description>  (199) 
PUBCHEM_BIOASSAY: Navigating the Kinome. (Class of assay: other) Panel member name: JAK3

>  <BAO Format>  (199) 
assay format

>  <Target>  (199) 
CHEMBL2148

>  <Target Pref. Name>  (199) 
Tyrosine-protein kinase JAK3

>  <Target Organism>  (199) 
Homo sapiens

>  <Target Type>  (199) 
SINGLE PROTEIN

>  <Document>  (199) 
CHEMBL1201862

>  <Source>  (199) 
PubChem BioAssays

>  <Max Phase>  (199) 
0

>  <#Ro5 Violations>  (199) 
0

>  <Molecular Weight>  (199) 
366.85

>  <Ligand Efficiency BEI>  (199) 
nan

>  <Ligand Efficiency LE>  (199) 
nan

>  <Ligand Efficiency LLE>  (199) 
nan

>  <Ligand Efficiency SEI>  (199) 
nan

>  <ALogP>  (199) 
3.74

>  <Assay Organism>  (199) 
nan

>  <Assay Tissue ChEMBL ID>  (199) 
nan

>  <Assay Tissue Name>  (199) 
nan

>  <Assay Cell Type>  (199) 
nan

>  <Assay Subcellular Fraction>  (199) 
nan

>  <Organism Tax ID>  (199) 
9606

>  <BAO Format ID>  (199) 
BAO_0000019

>  <Published Type>  (199) 
nan

>  <Published Relation>  (199) 
nan

>  <Published Value>  (199) 
nan

>  <Published Units>  (199) 
nan

>  <Canonical Smiles>  (199) 
OCC(Cc1ccc(Cl)cc1)NC(=O)c2ccc(cc2)c3ccncc3

>  <Data Validity Comment>  (199) 
nan

>  <Document Journal>  (199) 
nan

>  <Document Year>  (199) 
nan

>  <SRC ID>  (199) 
7

>  <UO Units>  (199) 
UO_0000065

>  <Potential Duplicate>  (199) 
False

>  <Class>  (199) 
0

$$$$

     RDKit          2D

 22 24  0  0  0  0  0  0  0  0999 V2000
   -7.9018    3.2966    0.0000 C   0  0  0  0  0  0  0  0  0  0  0  0
   -6.7871    2.2929    0.0000 C   0  0  0  0  0  0  0  0  0  0  0  0
   -7.0990    0.8256    0.0000 C   0  0  0  0  0  0  0  0  0  0  0  0
   -5.9843   -0.1781    0.0000 C   0  0  0  0  0  0  0  0  0  0  0  0
   -4.5577    0.2855    0.0000 O   0  0  0  0  0  0  0  0  0  0  0  0
   -6.2961   -1.6453    0.0000 N   0  0  0  0  0  0  0  0  0  0  0  0
   -5.1814   -2.6490    0.0000 C   0  0  0  0  0  0  0  0  0  0  0  0
   -3.7548   -2.1855    0.0000 C   0  0  0  0  0  0  0  0  0  0  0  0
   -2.6401   -3.1891    0.0000 C   0  0  0  0  0  0  0  0  0  0  0  0
   -2.9520   -4.6564    0.0000 C   0  0  0  0  0  0  0  0  0  0  0  0
   -4.3786   -5.1199    0.0000 C   0  0  0  0  0  0  0  0  0  0  0  0
   -4.6904   -6.5871    0.0000 Cl  0  0  0  0  0  0  0  0  0  0  0  0
   -5.4933   -4.1162    0.0000 N   0  0  0  0  0  0  0  0  0  0  0  0
   -1.2135   -2.7256    0.0000 C   0  0  0  0  0  0  0  0  0  0  0  0
    0.0000   -3.6073    0.0000 C   0  0  0  0  0  0  0  0  0  0  0  0
    1.2135   -2.7256    0.0000 N   0  0  0  0  0  0  0  0  0  0  0  0
    0.7500   -1.2990    0.0000 C   0  0  0  0  0  0  0  0  0  0  0  0
    1.5000    0.0000    0.0000 N   0  0  0  0  0  0  0  0  0  0  0  0
    0.7500    1.2990    0.0000 C   0  0  0  0  0  0  0  0  0  0  0  0
   -0.7500    1.2990    0.0000 C   0  0  0  0  0  0  0  0  0  0  0  0
   -1.5000    0.0000    0.0000 C   0  0  0  0  0  0  0  0  0  0  0  0
   -0.7500   -1.2990    0.0000 C   0  0  0  0  0  0  0  0  0  0  0  0
  1  2  1  0
  2  3  1  0
  3  4  1  0
  4  5  2  0
  4  6  1  0
  6  7  1  0
  7  8  2  0
  8  9  1  0
  9 10  2  0
 10 11  1  0
 11 12  1  0
 11 13  2  0
  9 14  1  0
 14 15  2  0
 15 16  1  0
 16 17  1  0
 17 18  2  0
 18 19  1  0
 19 20  2  0
 20 21  1  0
 21 22  2  0
 13  7  1  0
 22 14  1  0
 22 17  1  0
M  END
>  <Molecule>  (200) 
CHEMBL1998470

>  <Standard Type>  (200) 
Ki

>  <Standard Relation>  (200) 
>

>  <Standard Value>  (200) 
5011.87

>  <Standard Units>  (200) 
nM

>  <pChEMBL Value>  (200) 
nan

>  <Comment>  (200) 
inactive

>  <Compound Key>  (200) 
SID103904252

>  <Assay>  (200) 
CHEMBL1963742

>  <Assay Description>  (200) 
PUBCHEM_BIOASSAY: Navigating the Kinome. (Class of assay: other) Panel member name: JAK3

>  <BAO Format>  (200) 
assay format

>  <Target>  (200) 
CHEMBL2148

>  <Target Pref. Name>  (200) 
Tyrosine-protein kinase JAK3

>  <Target Organism>  (200) 
Homo sapiens

>  <Target Type>  (200) 
SINGLE PROTEIN

>  <Document>  (200) 
CHEMBL1201862

>  <Source>  (200) 
PubChem BioAssays

>  <Max Phase>  (200) 
0

>  <#Ro5 Violations>  (200) 
0

>  <Molecular Weight>  (200) 
314.78

>  <Ligand Efficiency BEI>  (200) 
nan

>  <Ligand Efficiency LE>  (200) 
nan

>  <Ligand Efficiency LLE>  (200) 
nan

>  <Ligand Efficiency SEI>  (200) 
nan

>  <ALogP>  (200) 
4.02

>  <Assay Organism>  (200) 
nan

>  <Assay Tissue ChEMBL ID>  (200) 
nan

>  <Assay Tissue Name>  (200) 
nan

>  <Assay Cell Type>  (200) 
nan

>  <Assay Subcellular Fraction>  (200) 
nan

>  <Organism Tax ID>  (200) 
9606

>  <BAO Format ID>  (200) 
BAO_0000019

>  <Published Type>  (200) 
nan

>  <Published Relation>  (200) 
nan

>  <Published Value>  (200) 
nan

>  <Published Units>  (200) 
nan

>  <Canonical Smiles>  (200) 
CCCC(=O)Nc1cc(cc(Cl)n1)c2c[nH]c3ncccc23

>  <Data Validity Comment>  (200) 
nan

>  <Document Journal>  (200) 
nan

>  <Document Year>  (200) 
nan

>  <SRC ID>  (200) 
7

>  <UO Units>  (200) 
UO_0000065

>  <Potential Duplicate>  (200) 
False

>  <Class>  (200) 
0

$$$$

     RDKit          2D

 23 26  0  0  0  0  0  0  0  0999 V2000
   -0.0164   11.8085    0.0000 C   0  0  0  0  0  0  0  0  0  0  0  0
   -1.1311   10.8048    0.0000 C   0  0  0  0  0  0  0  0  0  0  0  0
   -0.8192    9.3376    0.0000 C   0  0  0  0  0  0  0  0  0  0  0  0
   -1.9339    8.3339    0.0000 C   0  0  0  0  0  0  0  0  0  0  0  0
   -3.3605    8.7974    0.0000 C   0  0  0  0  0  0  0  0  0  0  0  0
   -4.4752    7.7937    0.0000 C   0  0  0  0  0  0  0  0  0  0  0  0
   -4.1634    6.3265    0.0000 N   0  0  0  0  0  0  0  0  0  0  0  0
   -2.7931    5.7164    0.0000 C   0  0  0  0  0  0  0  0  0  0  0  0
   -2.9499    4.2246    0.0000 C   0  0  0  0  0  0  0  0  0  0  0  0
   -4.4171    3.9127    0.0000 N   0  0  0  0  0  0  0  0  0  0  0  0
   -5.1671    5.2118    0.0000 N   0  0  0  0  0  0  0  0  0  0  0  0
   -1.8351    3.2209    0.0000 C   0  0  0  0  0  0  0  0  0  0  0  0
   -0.4086    3.6844    0.0000 C   0  0  0  0  0  0  0  0  0  0  0  0
    0.7062    2.6807    0.0000 C   0  0  0  0  0  0  0  0  0  0  0  0
    0.3943    1.2135    0.0000 C   0  0  0  0  0  0  0  0  0  0  0  0
    1.2760    0.0000    0.0000 N   0  0  0  0  0  0  0  0  0  0  0  0
    0.3943   -1.2135    0.0000 N   0  0  0  0  0  0  0  0  0  0  0  0
   -1.0323   -0.7500    0.0000 C   0  0  0  0  0  0  0  0  0  0  0  0
   -1.0323    0.7500    0.0000 C   0  0  0  0  0  0  0  0  0  0  0  0
   -2.1470    1.7537    0.0000 C   0  0  0  0  0  0  0  0  0  0  0  0
   -3.6724   10.2646    0.0000 C   0  0  0  0  0  0  0  0  0  0  0  0
   -5.0990   10.7282    0.0000 C   0  0  0  0  0  0  0  0  0  0  0  0
   -2.5577   11.2683    0.0000 C   0  0  0  0  0  0  0  0  0  0  0  0
  1  2  1  0
  2  3  2  0
  3  4  1  0
  4  5  2  0
  5  6  1  0
  6  7  1  0
  7  8  1  0
  8  9  2  0
  9 10  1  0
 10 11  2  0
  9 12  1  0
 12 13  2  0
 13 14  1  0
 14 15  2  0
 15 16  1  0
 16 17  1  0
 17 18  2  0
 18 19  1  0
 19 20  2  0
  5 21  1  0
 21 22  1  0
 21 23  2  0
 23  2  1  0
 11  7  1  0
 20 12  1  0
 19 15  1  0
M  END
>  <Molecule>  (201) 
CHEMBL1984432

>  <Standard Type>  (201) 
Ki

>  <Standard Relation>  (201) 
>

>  <Standard Value>  (201) 
1584.89

>  <Standard Units>  (201) 
nM

>  <pChEMBL Value>  (201) 
nan

>  <Comment>  (201) 
inactive

>  <Compound Key>  (201) 
SID103904530

>  <Assay>  (201) 
CHEMBL1963742

>  <Assay Description>  (201) 
PUBCHEM_BIOASSAY: Navigating the Kinome. (Class of assay: other) Panel member name: JAK3

>  <BAO Format>  (201) 
assay format

>  <Target>  (201) 
CHEMBL2148

>  <Target Pref. Name>  (201) 
Tyrosine-protein kinase JAK3

>  <Target Organism>  (201) 
Homo sapiens

>  <Target Type>  (201) 
SINGLE PROTEIN

>  <Document>  (201) 
CHEMBL1201862

>  <Source>  (201) 
PubChem BioAssays

>  <Max Phase>  (201) 
0

>  <#Ro5 Violations>  (201) 
0

>  <Molecular Weight>  (201) 
303.37

>  <Ligand Efficiency BEI>  (201) 
nan

>  <Ligand Efficiency LE>  (201) 
nan

>  <Ligand Efficiency LLE>  (201) 
nan

>  <Ligand Efficiency SEI>  (201) 
nan

>  <ALogP>  (201) 
3.49

>  <Assay Organism>  (201) 
nan

>  <Assay Tissue ChEMBL ID>  (201) 
nan

>  <Assay Tissue Name>  (201) 
nan

>  <Assay Cell Type>  (201) 
nan

>  <Assay Subcellular Fraction>  (201) 
nan

>  <Organism Tax ID>  (201) 
9606

>  <BAO Format ID>  (201) 
BAO_0000019

>  <Published Type>  (201) 
nan

>  <Published Relation>  (201) 
nan

>  <Published Value>  (201) 
nan

>  <Published Units>  (201) 
nan

>  <Canonical Smiles>  (201) 
Cc1ccc(Cn2cc(nn2)c3ccc4[nH]ncc4c3)c(C)c1

>  <Data Validity Comment>  (201) 
nan

>  <Document Journal>  (201) 
nan

>  <Document Year>  (201) 
nan

>  <SRC ID>  (201) 
7

>  <UO Units>  (201) 
UO_0000065

>  <Potential Duplicate>  (201) 
False

>  <Class>  (201) 
0

$$$$

     RDKit          2D

 23 26  0  0  0  0  0  0  0  0999 V2000
   -2.8695   12.7356    0.0000 O   0  0  0  0  0  0  0  0  0  0  0  0
   -2.5577   11.2683    0.0000 C   0  0  0  0  0  0  0  0  0  0  0  0
   -1.1311   10.8048    0.0000 C   0  0  0  0  0  0  0  0  0  0  0  0
   -0.8192    9.3376    0.0000 C   0  0  0  0  0  0  0  0  0  0  0  0
   -1.9339    8.3339    0.0000 C   0  0  0  0  0  0  0  0  0  0  0  0
   -3.3605    8.7974    0.0000 N   0  0  0  0  0  0  0  0  0  0  0  0
   -3.6724   10.2646    0.0000 C   0  0  0  0  0  0  0  0  0  0  0  0
   -4.4752    7.7937    0.0000 C   0  0  0  0  0  0  0  0  0  0  0  0
   -5.9018    8.2572    0.0000 O   0  0  0  0  0  0  0  0  0  0  0  0
   -4.1634    6.3265    0.0000 C   0  0  0  0  0  0  0  0  0  0  0  0
   -2.7931    5.7164    0.0000 C   0  0  0  0  0  0  0  0  0  0  0  0
   -2.9499    4.2246    0.0000 C   0  0  0  0  0  0  0  0  0  0  0  0
   -4.4171    3.9127    0.0000 O   0  0  0  0  0  0  0  0  0  0  0  0
   -5.1671    5.2118    0.0000 N   0  0  0  0  0  0  0  0  0  0  0  0
   -1.8351    3.2209    0.0000 C   0  0  0  0  0  0  0  0  0  0  0  0
   -0.4086    3.6844    0.0000 C   0  0  0  0  0  0  0  0  0  0  0  0
    0.7062    2.6807    0.0000 C   0  0  0  0  0  0  0  0  0  0  0  0
    0.3943    1.2135    0.0000 C   0  0  0  0  0  0  0  0  0  0  0  0
    1.2760    0.0000    0.0000 N   0  0  0  0  0  0  0  0  0  0  0  0
    0.3943   -1.2135    0.0000 N   0  0  0  0  0  0  0  0  0  0  0  0
   -1.0323   -0.7500    0.0000 C   0  0  0  0  0  0  0  0  0  0  0  0
   -1.0323    0.7500    0.0000 C   0  0  0  0  0  0  0  0  0  0  0  0
   -2.1470    1.7537    0.0000 C   0  0  0  0  0  0  0  0  0  0  0  0
  1  2  1  0
  2  3  1  0
  3  4  1  0
  4  5  1  0
  5  6  1  0
  6  7  1  0
  6  8  1  0
  8  9  2  0
  8 10  1  0
 10 11  1  0
 11 12  2  0
 12 13  1  0
 13 14  1  0
 12 15  1  0
 15 16  2  0
 16 17  1  0
 17 18  2  0
 18 19  1  0
 19 20  1  0
 20 21  2  0
 21 22  1  0
 22 23  2  0
  7  2  1  0
 14 10  2  0
 23 15  1  0
 22 18  1  0
M  END
>  <Molecule>  (202) 
CHEMBL1997340

>  <Standard Type>  (202) 
Ki

>  <Standard Relation>  (202) 
>

>  <Standard Value>  (202) 
1584.89

>  <Standard Units>  (202) 
nM

>  <pChEMBL Value>  (202) 
nan

>  <Comment>  (202) 
inactive

>  <Compound Key>  (202) 
SID103904524

>  <Assay>  (202) 
CHEMBL1963742

>  <Assay Description>  (202) 
PUBCHEM_BIOASSAY: Navigating the Kinome. (Class of assay: other) Panel member name: JAK3

>  <BAO Format>  (202) 
assay format

>  <Target>  (202) 
CHEMBL2148

>  <Target Pref. Name>  (202) 
Tyrosine-protein kinase JAK3

>  <Target Organism>  (202) 
Homo sapiens

>  <Target Type>  (202) 
SINGLE PROTEIN

>  <Document>  (202) 
CHEMBL1201862

>  <Source>  (202) 
PubChem BioAssays

>  <Max Phase>  (202) 
0

>  <#Ro5 Violations>  (202) 
0

>  <Molecular Weight>  (202) 
312.33

>  <Ligand Efficiency BEI>  (202) 
nan

>  <Ligand Efficiency LE>  (202) 
nan

>  <Ligand Efficiency LLE>  (202) 
nan

>  <Ligand Efficiency SEI>  (202) 
nan

>  <ALogP>  (202) 
1.81

>  <Assay Organism>  (202) 
nan

>  <Assay Tissue ChEMBL ID>  (202) 
nan

>  <Assay Tissue Name>  (202) 
nan

>  <Assay Cell Type>  (202) 
nan

>  <Assay Subcellular Fraction>  (202) 
nan

>  <Organism Tax ID>  (202) 
9606

>  <BAO Format ID>  (202) 
BAO_0000019

>  <Published Type>  (202) 
nan

>  <Published Relation>  (202) 
nan

>  <Published Value>  (202) 
nan

>  <Published Units>  (202) 
nan

>  <Canonical Smiles>  (202) 
OC1CCCN(C1)C(=O)c2cc(on2)c3ccc4[nH]ncc4c3

>  <Data Validity Comment>  (202) 
nan

>  <Document Journal>  (202) 
nan

>  <Document Year>  (202) 
nan

>  <SRC ID>  (202) 
7

>  <UO Units>  (202) 
UO_0000065

>  <Potential Duplicate>  (202) 
False

>  <Class>  (202) 
0

$$$$

     RDKit          2D

 32 35  0  0  0  0  0  0  0  0999 V2000
   -2.6401   -3.1891    0.0000 C   0  0  0  0  0  0  0  0  0  0  0  0
   -1.2135   -2.7256    0.0000 C   0  0  0  0  0  0  0  0  0  0  0  0
   -0.0000   -3.6073    0.0000 N   0  0  0  0  0  0  0  0  0  0  0  0
    1.2135   -2.7256    0.0000 N   0  0  0  0  0  0  0  0  0  0  0  0
    0.7500   -1.2990    0.0000 C   0  0  0  0  0  0  0  0  0  0  0  0
    1.5000    0.0000    0.0000 C   0  0  0  0  0  0  0  0  0  0  0  0
    0.7500    1.2990    0.0000 C   0  0  0  0  0  0  0  0  0  0  0  0
   -0.7500    1.2990    0.0000 C   0  0  0  0  0  0  0  0  0  0  0  0
   -1.5000    0.0000    0.0000 C   0  0  0  0  0  0  0  0  0  0  0  0
   -0.7500   -1.2990    0.0000 C   0  0  0  0  0  0  0  0  0  0  0  0
   -1.5000    2.5981    0.0000 C   0  0  0  0  0  0  0  0  0  0  0  0
   -0.7500    3.8971    0.0000 C   0  0  0  0  0  0  0  0  0  0  0  0
   -1.5000    5.1962    0.0000 N   0  0  0  0  0  0  0  0  0  0  0  0
   -3.0000    5.1962    0.0000 C   0  0  0  0  0  0  0  0  0  0  0  0
   -3.7500    3.8971    0.0000 C   0  0  0  0  0  0  0  0  0  0  0  0
   -5.2500    3.8971    0.0000 O   0  0  0  0  0  0  0  0  0  0  0  0
   -6.0000    5.1962    0.0000 C   0  0  0  0  0  0  0  0  0  0  0  0
   -7.5000    5.1962    0.0000 C   0  0  0  0  0  0  0  0  0  0  0  0
   -8.2500    3.8971    0.0000 N   0  0  0  0  0  0  0  0  0  0  0  0
   -8.2500    6.4952    0.0000 C   0  0  0  0  0  0  0  0  0  0  0  0
   -9.7500    6.4952    0.0000 C   0  0  0  0  0  0  0  0  0  0  0  0
  -10.5000    7.7942    0.0000 C   0  0  0  0  0  0  0  0  0  0  0  0
  -12.0000    7.7942    0.0000 C   0  0  0  0  0  0  0  0  0  0  0  0
  -12.7500    6.4952    0.0000 C   0  0  0  0  0  0  0  0  0  0  0  0
  -12.0000    5.1962    0.0000 C   0  0  0  0  0  0  0  0  0  0  0  0
  -12.7500    3.8971    0.0000 O   0  0  0  0  0  0  0  0  0  0  0  0
  -14.2500    3.8971    0.0000 C   0  0  0  0  0  0  0  0  0  0  0  0
  -15.7500    3.8971    0.0000 F   0  0  0  0  0  0  0  0  0  0  0  0
  -14.2500    2.3971    0.0000 F   0  0  0  0  0  0  0  0  0  0  0  0
  -14.2500    5.3971    0.0000 F   0  0  0  0  0  0  0  0  0  0  0  0
  -10.5000    5.1962    0.0000 C   0  0  0  0  0  0  0  0  0  0  0  0
   -3.0000    2.5981    0.0000 C   0  0  0  0  0  0  0  0  0  0  0  0
  1  2  1  0
  2  3  2  0
  3  4  1  0
  4  5  1  0
  5  6  2  0
  6  7  1  0
  7  8  2  0
  8  9  1  0
  9 10  2  0
  8 11  1  0
 11 12  2  0
 12 13  1  0
 13 14  2  0
 14 15  1  0
 15 16  1  0
 16 17  1  0
 17 18  1  0
 18 19  1  0
 18 20  1  0
 20 21  1  0
 21 22  2  0
 22 23  1  0
 23 24  2  0
 24 25  1  0
 25 26  1  0
 26 27  1  0
 27 28  1  0
 27 29  1  0
 27 30  1  0
 25 31  2  0
 15 32  2  0
 10  2  1  0
 10  5  1  0
 32 11  1  0
 31 21  1  0
M  END
>  <Molecule>  (203) 
CHEMBL1965836

>  <Standard Type>  (203) 
Ki

>  <Standard Relation>  (203) 
>

>  <Standard Value>  (203) 
1584.89

>  <Standard Units>  (203) 
nM

>  <pChEMBL Value>  (203) 
nan

>  <Comment>  (203) 
inactive

>  <Compound Key>  (203) 
SID103904463

>  <Assay>  (203) 
CHEMBL1963742

>  <Assay Description>  (203) 
PUBCHEM_BIOASSAY: Navigating the Kinome. (Class of assay: other) Panel member name: JAK3

>  <BAO Format>  (203) 
assay format

>  <Target>  (203) 
CHEMBL2148

>  <Target Pref. Name>  (203) 
Tyrosine-protein kinase JAK3

>  <Target Organism>  (203) 
Homo sapiens

>  <Target Type>  (203) 
SINGLE PROTEIN

>  <Document>  (203) 
CHEMBL1201862

>  <Source>  (203) 
PubChem BioAssays

>  <Max Phase>  (203) 
0

>  <#Ro5 Violations>  (203) 
0

>  <Molecular Weight>  (203) 
442.44

>  <Ligand Efficiency BEI>  (203) 
nan

>  <Ligand Efficiency LE>  (203) 
nan

>  <Ligand Efficiency LLE>  (203) 
nan

>  <Ligand Efficiency SEI>  (203) 
nan

>  <ALogP>  (203) 
4.78

>  <Assay Organism>  (203) 
nan

>  <Assay Tissue ChEMBL ID>  (203) 
nan

>  <Assay Tissue Name>  (203) 
nan

>  <Assay Cell Type>  (203) 
nan

>  <Assay Subcellular Fraction>  (203) 
nan

>  <Organism Tax ID>  (203) 
9606

>  <BAO Format ID>  (203) 
BAO_0000019

>  <Published Type>  (203) 
nan

>  <Published Relation>  (203) 
nan

>  <Published Value>  (203) 
nan

>  <Published Units>  (203) 
nan

>  <Canonical Smiles>  (203) 
Cc1n[nH]c2ccc(cc12)c3cncc(OCC(N)Cc4cccc(OC(F)(F)F)c4)c3

>  <Data Validity Comment>  (203) 
nan

>  <Document Journal>  (203) 
nan

>  <Document Year>  (203) 
nan

>  <SRC ID>  (203) 
7

>  <UO Units>  (203) 
UO_0000065

>  <Potential Duplicate>  (203) 
False

>  <Class>  (203) 
0

$$$$

     RDKit          2D

 25 27  0  0  0  0  0  0  0  0999 V2000
    3.7500   -1.2990    0.0000 C   0  0  0  0  0  0  0  0  0  0  0  0
    3.0000    0.0000    0.0000 O   0  0  0  0  0  0  0  0  0  0  0  0
    1.5000    0.0000    0.0000 C   0  0  0  0  0  0  0  0  0  0  0  0
    0.7500   -1.2990    0.0000 C   0  0  0  0  0  0  0  0  0  0  0  0
   -0.7500   -1.2990    0.0000 C   0  0  0  0  0  0  0  0  0  0  0  0
   -1.5000    0.0000    0.0000 C   0  0  0  0  0  0  0  0  0  0  0  0
   -0.7500    1.2990    0.0000 C   0  0  0  0  0  0  0  0  0  0  0  0
    0.7500    1.2990    0.0000 C   0  0  0  0  0  0  0  0  0  0  0  0
   -1.5000    2.5981    0.0000 C   0  0  0  0  0  0  0  0  0  0  0  0
   -0.7500    3.8971    0.0000 C   0  0  0  0  0  0  0  0  0  0  0  0
   -3.0000    2.5981    0.0000 N   0  0  0  0  0  0  0  0  0  0  0  0
   -3.7500    3.8971    0.0000 C   0  0  0  0  0  0  0  0  0  0  0  0
   -3.0000    5.1962    0.0000 O   0  0  0  0  0  0  0  0  0  0  0  0
   -5.2500    3.8971    0.0000 C   0  0  0  0  0  0  0  0  0  0  0  0
   -6.1317    2.6836    0.0000 S   0  0  0  0  0  0  0  0  0  0  0  0
   -7.5583    3.1471    0.0000 C   0  0  0  0  0  0  0  0  0  0  0  0
   -7.5583    4.6471    0.0000 N   0  0  0  0  0  0  0  0  0  0  0  0
   -6.1317    5.1106    0.0000 C   0  0  0  0  0  0  0  0  0  0  0  0
   -5.6682    6.5372    0.0000 C   0  0  0  0  0  0  0  0  0  0  0  0
   -8.7718    2.2654    0.0000 C   0  0  0  0  0  0  0  0  0  0  0  0
  -10.1421    2.8755    0.0000 C   0  0  0  0  0  0  0  0  0  0  0  0
  -11.3556    1.9939    0.0000 C   0  0  0  0  0  0  0  0  0  0  0  0
  -11.1988    0.5021    0.0000 N   0  0  0  0  0  0  0  0  0  0  0  0
   -9.8285   -0.1080    0.0000 C   0  0  0  0  0  0  0  0  0  0  0  0
   -8.6150    0.7737    0.0000 C   0  0  0  0  0  0  0  0  0  0  0  0
  1  2  1  0
  2  3  1  0
  3  4  2  0
  4  5  1  0
  5  6  2  0
  6  7  1  0
  7  8  2  0
  7  9  1  0
  9 10  1  0
  9 11  1  0
 11 12  1  0
 12 13  2  0
 12 14  1  0
 14 15  1  0
 15 16  1  0
 16 17  2  0
 17 18  1  0
 18 19  1  0
 16 20  1  0
 20 21  2  0
 21 22  1  0
 22 23  2  0
 23 24  1  0
 24 25  2  0
  8  3  1  0
 18 14  2  0
 25 20  1  0
M  END
>  <Molecule>  (204) 
CHEMBL1978567

>  <Standard Type>  (204) 
Ki

>  <Standard Relation>  (204) 
>

>  <Standard Value>  (204) 
5011.87

>  <Standard Units>  (204) 
nM

>  <pChEMBL Value>  (204) 
nan

>  <Comment>  (204) 
inactive

>  <Compound Key>  (204) 
SID103904911

>  <Assay>  (204) 
CHEMBL1963742

>  <Assay Description>  (204) 
PUBCHEM_BIOASSAY: Navigating the Kinome. (Class of assay: other) Panel member name: JAK3

>  <BAO Format>  (204) 
assay format

>  <Target>  (204) 
CHEMBL2148

>  <Target Pref. Name>  (204) 
Tyrosine-protein kinase JAK3

>  <Target Organism>  (204) 
Homo sapiens

>  <Target Type>  (204) 
SINGLE PROTEIN

>  <Document>  (204) 
CHEMBL1201862

>  <Source>  (204) 
PubChem BioAssays

>  <Max Phase>  (204) 
0

>  <#Ro5 Violations>  (204) 
0

>  <Molecular Weight>  (204) 
353.45

>  <Ligand Efficiency BEI>  (204) 
nan

>  <Ligand Efficiency LE>  (204) 
nan

>  <Ligand Efficiency LLE>  (204) 
nan

>  <Ligand Efficiency SEI>  (204) 
nan

>  <ALogP>  (204) 
4.01

>  <Assay Organism>  (204) 
nan

>  <Assay Tissue ChEMBL ID>  (204) 
nan

>  <Assay Tissue Name>  (204) 
nan

>  <Assay Cell Type>  (204) 
nan

>  <Assay Subcellular Fraction>  (204) 
nan

>  <Organism Tax ID>  (204) 
9606

>  <BAO Format ID>  (204) 
BAO_0000019

>  <Published Type>  (204) 
nan

>  <Published Relation>  (204) 
nan

>  <Published Value>  (204) 
nan

>  <Published Units>  (204) 
nan

>  <Canonical Smiles>  (204) 
COc1cccc(c1)C(C)NC(=O)c2sc(nc2C)c3ccncc3

>  <Data Validity Comment>  (204) 
nan

>  <Document Journal>  (204) 
nan

>  <Document Year>  (204) 
nan

>  <SRC ID>  (204) 
7

>  <UO Units>  (204) 
UO_0000065

>  <Potential Duplicate>  (204) 
False

>  <Class>  (204) 
0

$$$$

     RDKit          2D

 28 32  0  0  0  0  0  0  0  0999 V2000
    3.0000    0.0000    0.0000 N   0  0  0  0  0  0  0  0  0  0  0  0
    1.5000    0.0000    0.0000 C   0  0  0  0  0  0  0  0  0  0  0  0
    0.7500   -1.2990    0.0000 N   0  0  0  0  0  0  0  0  0  0  0  0
   -0.7500   -1.2990    0.0000 C   0  0  0  0  0  0  0  0  0  0  0  0
   -1.5000    0.0000    0.0000 N   0  0  0  0  0  0  0  0  0  0  0  0
   -0.7500    1.2990    0.0000 C   0  0  0  0  0  0  0  0  0  0  0  0
   -1.2135    2.7256    0.0000 S   0  0  0  0  0  0  0  0  0  0  0  0
   -0.0000    3.6073    0.0000 C   0  0  0  0  0  0  0  0  0  0  0  0
    0.1568    5.0991    0.0000 C   0  0  0  0  0  0  0  0  0  0  0  0
    1.5271    5.7092    0.0000 C   0  0  0  0  0  0  0  0  0  0  0  0
    2.7406    4.8275    0.0000 C   0  0  0  0  0  0  0  0  0  0  0  0
    4.1110    5.4376    0.0000 C   0  0  0  0  0  0  0  0  0  0  0  0
    5.3245    4.5559    0.0000 C   0  0  0  0  0  0  0  0  0  0  0  0
    6.6948    5.1660    0.0000 N   0  0  0  0  0  0  0  0  0  0  0  0
    7.9083    4.2844    0.0000 C   0  0  0  0  0  0  0  0  0  0  0  0
    7.7515    2.7926    0.0000 O   0  0  0  0  0  0  0  0  0  0  0  0
    9.2786    4.8945    0.0000 N   0  0  0  0  0  0  0  0  0  0  0  0
   10.4922    4.0128    0.0000 C   0  0  0  0  0  0  0  0  0  0  0  0
   10.3354    2.5210    0.0000 C   0  0  0  0  0  0  0  0  0  0  0  0
   11.5489    1.6393    0.0000 C   0  0  0  0  0  0  0  0  0  0  0  0
   12.9192    2.2494    0.0000 C   0  0  0  0  0  0  0  0  0  0  0  0
   13.0760    3.7412    0.0000 C   0  0  0  0  0  0  0  0  0  0  0  0
   11.8625    4.6229    0.0000 C   0  0  0  0  0  0  0  0  0  0  0  0
    5.1677    3.0642    0.0000 C   0  0  0  0  0  0  0  0  0  0  0  0
    3.7974    2.4540    0.0000 C   0  0  0  0  0  0  0  0  0  0  0  0
    2.5838    3.3357    0.0000 C   0  0  0  0  0  0  0  0  0  0  0  0
    1.2135    2.7256    0.0000 C   0  0  0  0  0  0  0  0  0  0  0  0
    0.7500    1.2990    0.0000 C   0  0  0  0  0  0  0  0  0  0  0  0
  1  2  1  0
  2  3  2  0
  3  4  1  0
  4  5  2  0
  5  6  1  0
  6  7  1  0
  7  8  1  0
  8  9  1  0
  9 10  1  0
 10 11  1  0
 11 12  2  0
 12 13  1  0
 13 14  1  0
 14 15  1  0
 15 16  2  0
 15 17  1  0
 17 18  1  0
 18 19  2  0
 19 20  1  0
 20 21  2  0
 21 22  1  0
 22 23  2  0
 13 24  2  0
 24 25  1  0
 25 26  2  0
 26 27  1  0
 27 28  1  0
 28  2  1  0
 28  6  2  0
 27  8  2  0
 26 11  1  0
 23 18  1  0
M  END
>  <Molecule>  (205) 
CHEMBL1994693

>  <Standard Type>  (205) 
Ki

>  <Standard Relation>  (205) 
>

>  <Standard Value>  (205) 
1584.89

>  <Standard Units>  (205) 
nM

>  <pChEMBL Value>  (205) 
nan

>  <Comment>  (205) 
inactive

>  <Compound Key>  (205) 
SID103904349

>  <Assay>  (205) 
CHEMBL1963742

>  <Assay Description>  (205) 
PUBCHEM_BIOASSAY: Navigating the Kinome. (Class of assay: other) Panel member name: JAK3

>  <BAO Format>  (205) 
assay format

>  <Target>  (205) 
CHEMBL2148

>  <Target Pref. Name>  (205) 
Tyrosine-protein kinase JAK3

>  <Target Organism>  (205) 
Homo sapiens

>  <Target Type>  (205) 
SINGLE PROTEIN

>  <Document>  (205) 
CHEMBL1201862

>  <Source>  (205) 
PubChem BioAssays

>  <Max Phase>  (205) 
0

>  <#Ro5 Violations>  (205) 
0

>  <Molecular Weight>  (205) 
387.47

>  <Ligand Efficiency BEI>  (205) 
nan

>  <Ligand Efficiency LE>  (205) 
nan

>  <Ligand Efficiency LLE>  (205) 
nan

>  <Ligand Efficiency SEI>  (205) 
nan

>  <ALogP>  (205) 
4.68

>  <Assay Organism>  (205) 
nan

>  <Assay Tissue ChEMBL ID>  (205) 
nan

>  <Assay Tissue Name>  (205) 
nan

>  <Assay Cell Type>  (205) 
nan

>  <Assay Subcellular Fraction>  (205) 
nan

>  <Organism Tax ID>  (205) 
9606

>  <BAO Format ID>  (205) 
BAO_0000019

>  <Published Type>  (205) 
nan

>  <Published Relation>  (205) 
nan

>  <Published Value>  (205) 
nan

>  <Published Units>  (205) 
nan

>  <Canonical Smiles>  (205) 
Nc1ncnc2sc3CCc4cc(NC(=O)Nc5ccccc5)ccc4c3c12

>  <Data Validity Comment>  (205) 
nan

>  <Document Journal>  (205) 
nan

>  <Document Year>  (205) 
nan

>  <SRC ID>  (205) 
7

>  <UO Units>  (205) 
UO_0000065

>  <Potential Duplicate>  (205) 
False

>  <Class>  (205) 
0

$$$$

     RDKit          2D

 14 16  0  0  0  0  0  0  0  0999 V2000
   -3.7974   -2.4540    0.0000 N   0  0  0  0  0  0  0  0  0  0  0  0
   -2.5838   -3.3357    0.0000 C   0  0  0  0  0  0  0  0  0  0  0  0
   -2.7406   -4.8275    0.0000 N   0  0  0  0  0  0  0  0  0  0  0  0
   -1.5271   -5.7092    0.0000 C   0  0  0  0  0  0  0  0  0  0  0  0
   -0.1568   -5.0991    0.0000 N   0  0  0  0  0  0  0  0  0  0  0  0
   -0.0000   -3.6073    0.0000 C   0  0  0  0  0  0  0  0  0  0  0  0
    1.2135   -2.7256    0.0000 N   0  0  0  0  0  0  0  0  0  0  0  0
    0.7500   -1.2990    0.0000 C   0  0  0  0  0  0  0  0  0  0  0  0
    1.5000    0.0000    0.0000 C   0  0  0  0  0  0  0  0  0  0  0  0
    0.7500    1.2990    0.0000 C   0  0  0  0  0  0  0  0  0  0  0  0
   -0.7500    1.2990    0.0000 C   0  0  0  0  0  0  0  0  0  0  0  0
   -1.5000    0.0000    0.0000 C   0  0  0  0  0  0  0  0  0  0  0  0
   -0.7500   -1.2990    0.0000 C   0  0  0  0  0  0  0  0  0  0  0  0
   -1.2135   -2.7256    0.0000 N   0  0  0  0  0  0  0  0  0  0  0  0
  1  2  1  0
  2  3  2  0
  3  4  1  0
  4  5  2  0
  5  6  1  0
  6  7  2  0
  7  8  1  0
  8  9  2  0
  9 10  1  0
 10 11  2  0
 11 12  1  0
 12 13  2  0
 13 14  1  0
 14  2  1  0
 14  6  1  0
 13  8  1  0
M  END
>  <Molecule>  (206) 
CHEMBL1983884

>  <Standard Type>  (206) 
Ki

>  <Standard Relation>  (206) 
>

>  <Standard Value>  (206) 
100000.0

>  <Standard Units>  (206) 
nM

>  <pChEMBL Value>  (206) 
nan

>  <Comment>  (206) 
inactive

>  <Compound Key>  (206) 
SID103905452

>  <Assay>  (206) 
CHEMBL1963742

>  <Assay Description>  (206) 
PUBCHEM_BIOASSAY: Navigating the Kinome. (Class of assay: other) Panel member name: JAK3

>  <BAO Format>  (206) 
assay format

>  <Target>  (206) 
CHEMBL2148

>  <Target Pref. Name>  (206) 
Tyrosine-protein kinase JAK3

>  <Target Organism>  (206) 
Homo sapiens

>  <Target Type>  (206) 
SINGLE PROTEIN

>  <Document>  (206) 
CHEMBL1201862

>  <Source>  (206) 
PubChem BioAssays

>  <Max Phase>  (206) 
0

>  <#Ro5 Violations>  (206) 
0

>  <Molecular Weight>  (206) 
185.19

>  <Ligand Efficiency BEI>  (206) 
nan

>  <Ligand Efficiency LE>  (206) 
nan

>  <Ligand Efficiency LLE>  (206) 
nan

>  <Ligand Efficiency SEI>  (206) 
nan

>  <ALogP>  (206) 
0.86

>  <Assay Organism>  (206) 
nan

>  <Assay Tissue ChEMBL ID>  (206) 
nan

>  <Assay Tissue Name>  (206) 
nan

>  <Assay Cell Type>  (206) 
nan

>  <Assay Subcellular Fraction>  (206) 
nan

>  <Organism Tax ID>  (206) 
9606

>  <BAO Format ID>  (206) 
BAO_0000019

>  <Published Type>  (206) 
nan

>  <Published Relation>  (206) 
nan

>  <Published Value>  (206) 
nan

>  <Published Units>  (206) 
nan

>  <Canonical Smiles>  (206) 
Nc1ncnc2nc3ccccc3n12

>  <Data Validity Comment>  (206) 
nan

>  <Document Journal>  (206) 
nan

>  <Document Year>  (206) 
nan

>  <SRC ID>  (206) 
7

>  <UO Units>  (206) 
UO_0000065

>  <Potential Duplicate>  (206) 
False

>  <Class>  (206) 
0

$$$$

     RDKit          2D

 27 30  0  0  0  0  0  0  0  0999 V2000
    3.0000    0.0000    0.0000 N   0  0  0  0  0  0  0  0  0  0  0  0
    1.5000    0.0000    0.0000 C   0  0  0  0  0  0  0  0  0  0  0  0
    0.7500   -1.2990    0.0000 N   0  0  0  0  0  0  0  0  0  0  0  0
   -0.7500   -1.2990    0.0000 C   0  0  0  0  0  0  0  0  0  0  0  0
   -1.5000    0.0000    0.0000 C   0  0  0  0  0  0  0  0  0  0  0  0
   -0.7500    1.2990    0.0000 C   0  0  0  0  0  0  0  0  0  0  0  0
   -1.2135    2.7256    0.0000 S   0  0  0  0  0  0  0  0  0  0  0  0
   -0.0000    3.6073    0.0000 C   0  0  0  0  0  0  0  0  0  0  0  0
    1.2135    2.7256    0.0000 C   0  0  0  0  0  0  0  0  0  0  0  0
    2.6401    3.1891    0.0000 C   0  0  0  0  0  0  0  0  0  0  0  0
    3.7548    2.1855    0.0000 C   0  0  0  0  0  0  0  0  0  0  0  0
    5.1814    2.6490    0.0000 C   0  0  0  0  0  0  0  0  0  0  0  0
    5.4933    4.1162    0.0000 C   0  0  0  0  0  0  0  0  0  0  0  0
    6.9199    4.5797    0.0000 N   0  0  0  0  0  0  0  0  0  0  0  0
    8.0346    3.5760    0.0000 C   0  0  0  0  0  0  0  0  0  0  0  0
    7.7227    2.1088    0.0000 O   0  0  0  0  0  0  0  0  0  0  0  0
    9.4612    4.0396    0.0000 N   0  0  0  0  0  0  0  0  0  0  0  0
   10.5759    3.0359    0.0000 C   0  0  0  0  0  0  0  0  0  0  0  0
   10.2640    1.5686    0.0000 C   0  0  0  0  0  0  0  0  0  0  0  0
   11.3787    0.5649    0.0000 C   0  0  0  0  0  0  0  0  0  0  0  0
   12.8053    1.0285    0.0000 C   0  0  0  0  0  0  0  0  0  0  0  0
   13.1172    2.4957    0.0000 C   0  0  0  0  0  0  0  0  0  0  0  0
   14.5438    2.9592    0.0000 Br  0  0  0  0  0  0  0  0  0  0  0  0
   12.0025    3.4994    0.0000 C   0  0  0  0  0  0  0  0  0  0  0  0
    4.3786    5.1199    0.0000 C   0  0  0  0  0  0  0  0  0  0  0  0
    2.9520    4.6564    0.0000 C   0  0  0  0  0  0  0  0  0  0  0  0
    0.7500    1.2990    0.0000 C   0  0  0  0  0  0  0  0  0  0  0  0
  1  2  1  0
  2  3  2  0
  3  4  1  0
  4  5  2  0
  5  6  1  0
  6  7  1  0
  7  8  1  0
  8  9  2  0
  9 10  1  0
 10 11  2  0
 11 12  1  0
 12 13  2  0
 13 14  1  0
 14 15  1  0
 15 16  2  0
 15 17  1  0
 17 18  1  0
 18 19  2  0
 19 20  1  0
 20 21  2  0
 21 22  1  0
 22 23  1  0
 22 24  2  0
 13 25  1  0
 25 26  2  0
  9 27  1  0
 27  2  1  0
 27  6  2  0
 26 10  1  0
 24 18  1  0
M  END
>  <Molecule>  (207) 
CHEMBL1976220

>  <Standard Type>  (207) 
Ki

>  <Standard Relation>  (207) 
>

>  <Standard Value>  (207) 
1584.89

>  <Standard Units>  (207) 
nM

>  <pChEMBL Value>  (207) 
nan

>  <Comment>  (207) 
inactive

>  <Compound Key>  (207) 
SID103904362

>  <Assay>  (207) 
CHEMBL1963742

>  <Assay Description>  (207) 
PUBCHEM_BIOASSAY: Navigating the Kinome. (Class of assay: other) Panel member name: JAK3

>  <BAO Format>  (207) 
assay format

>  <Target>  (207) 
CHEMBL2148

>  <Target Pref. Name>  (207) 
Tyrosine-protein kinase JAK3

>  <Target Organism>  (207) 
Homo sapiens

>  <Target Type>  (207) 
SINGLE PROTEIN

>  <Document>  (207) 
CHEMBL1201862

>  <Source>  (207) 
PubChem BioAssays

>  <Max Phase>  (207) 
0

>  <#Ro5 Violations>  (207) 
1

>  <Molecular Weight>  (207) 
439.34

>  <Ligand Efficiency BEI>  (207) 
nan

>  <Ligand Efficiency LE>  (207) 
nan

>  <Ligand Efficiency LLE>  (207) 
nan

>  <Ligand Efficiency SEI>  (207) 
nan

>  <ALogP>  (207) 
5.95

>  <Assay Organism>  (207) 
nan

>  <Assay Tissue ChEMBL ID>  (207) 
nan

>  <Assay Tissue Name>  (207) 
nan

>  <Assay Cell Type>  (207) 
nan

>  <Assay Subcellular Fraction>  (207) 
nan

>  <Organism Tax ID>  (207) 
9606

>  <BAO Format ID>  (207) 
BAO_0000019

>  <Published Type>  (207) 
nan

>  <Published Relation>  (207) 
nan

>  <Published Value>  (207) 
nan

>  <Published Units>  (207) 
nan

>  <Canonical Smiles>  (207) 
Nc1nccc2scc(c3ccc(NC(=O)Nc4cccc(Br)c4)cc3)c12

>  <Data Validity Comment>  (207) 
nan

>  <Document Journal>  (207) 
nan

>  <Document Year>  (207) 
nan

>  <SRC ID>  (207) 
7

>  <UO Units>  (207) 
UO_0000065

>  <Potential Duplicate>  (207) 
False

>  <Class>  (207) 
0

$$$$

     RDKit          2D

 31 34  0  0  0  0  0  0  0  0999 V2000
   -5.9379  -12.4560    0.0000 C   0  0  0  0  0  0  0  0  0  0  0  0
   -5.6260  -10.9888    0.0000 N   0  0  0  0  0  0  0  0  0  0  0  0
   -4.1994  -10.5253    0.0000 C   0  0  0  0  0  0  0  0  0  0  0  0
   -6.7407   -9.9851    0.0000 C   0  0  0  0  0  0  0  0  0  0  0  0
   -6.4289   -8.5179    0.0000 C   0  0  0  0  0  0  0  0  0  0  0  0
   -4.9617   -8.8297    0.0000 C   0  0  0  0  0  0  0  0  0  0  0  0
   -7.8961   -8.2060    0.0000 C   0  0  0  0  0  0  0  0  0  0  0  0
   -6.1170   -7.0506    0.0000 C   0  0  0  0  0  0  0  0  0  0  0  0
   -4.6904   -6.5871    0.0000 N   0  0  0  0  0  0  0  0  0  0  0  0
   -4.3786   -5.1199    0.0000 C   0  0  0  0  0  0  0  0  0  0  0  0
   -5.4933   -4.1162    0.0000 N   0  0  0  0  0  0  0  0  0  0  0  0
   -5.1814   -2.6490    0.0000 C   0  0  0  0  0  0  0  0  0  0  0  0
   -3.7548   -2.1855    0.0000 C   0  0  0  0  0  0  0  0  0  0  0  0
   -2.6401   -3.1891    0.0000 C   0  0  0  0  0  0  0  0  0  0  0  0
   -2.9520   -4.6564    0.0000 N   0  0  0  0  0  0  0  0  0  0  0  0
   -1.2135   -2.7256    0.0000 C   0  0  0  0  0  0  0  0  0  0  0  0
   -0.0000   -3.6073    0.0000 C   0  0  0  0  0  0  0  0  0  0  0  0
    1.2135   -2.7256    0.0000 N   0  0  0  0  0  0  0  0  0  0  0  0
    0.7500   -1.2990    0.0000 C   0  0  0  0  0  0  0  0  0  0  0  0
    1.5000    0.0000    0.0000 C   0  0  0  0  0  0  0  0  0  0  0  0
    0.7500    1.2990    0.0000 N   0  0  0  0  0  0  0  0  0  0  0  0
   -0.7500    1.2990    0.0000 C   0  0  0  0  0  0  0  0  0  0  0  0
   -1.5000    0.0000    0.0000 C   0  0  0  0  0  0  0  0  0  0  0  0
   -0.7500   -1.2990    0.0000 N   0  0  0  0  0  0  0  0  0  0  0  0
   -0.0000   -5.1073    0.0000 C   0  0  0  0  0  0  0  0  0  0  0  0
   -1.2990   -5.8573    0.0000 C   0  0  0  0  0  0  0  0  0  0  0  0
   -1.2990   -7.3573    0.0000 C   0  0  0  0  0  0  0  0  0  0  0  0
   -0.0000   -8.1073    0.0000 C   0  0  0  0  0  0  0  0  0  0  0  0
    0.0000   -9.6073    0.0000 F   0  0  0  0  0  0  0  0  0  0  0  0
    1.2990   -7.3573    0.0000 C   0  0  0  0  0  0  0  0  0  0  0  0
    1.2990   -5.8573    0.0000 C   0  0  0  0  0  0  0  0  0  0  0  0
  1  2  1  0
  2  3  1  0
  2  4  1  0
  4  5  1  0
  5  6  1  0
  5  7  1  0
  5  8  1  0
  8  9  1  0
  9 10  1  0
 10 11  2  0
 11 12  1  0
 12 13  2  0
 13 14  1  0
 14 15  2  0
 14 16  1  0
 16 17  2  0
 17 18  1  0
 18 19  2  0
 19 20  1  0
 20 21  2  0
 21 22  1  0
 22 23  2  0
 23 24  1  0
 17 25  1  0
 25 26  2  0
 26 27  1  0
 27 28  2  0
 28 29  1  0
 28 30  1  0
 30 31  2  0
 15 10  1  0
 24 16  1  0
 24 19  1  0
 31 25  1  0
M  END
>  <Molecule>  (208) 
CHEMBL1976093

>  <Standard Type>  (208) 
Ki

>  <Standard Relation>  (208) 
>

>  <Standard Value>  (208) 
1584.89

>  <Standard Units>  (208) 
nM

>  <pChEMBL Value>  (208) 
nan

>  <Comment>  (208) 
inactive

>  <Compound Key>  (208) 
SID103904757

>  <Assay>  (208) 
CHEMBL1963742

>  <Assay Description>  (208) 
PUBCHEM_BIOASSAY: Navigating the Kinome. (Class of assay: other) Panel member name: JAK3

>  <BAO Format>  (208) 
assay format

>  <Target>  (208) 
CHEMBL2148

>  <Target Pref. Name>  (208) 
Tyrosine-protein kinase JAK3

>  <Target Organism>  (208) 
Homo sapiens

>  <Target Type>  (208) 
SINGLE PROTEIN

>  <Document>  (208) 
CHEMBL1201862

>  <Source>  (208) 
PubChem BioAssays

>  <Max Phase>  (208) 
0

>  <#Ro5 Violations>  (208) 
0

>  <Molecular Weight>  (208) 
419.51

>  <Ligand Efficiency BEI>  (208) 
nan

>  <Ligand Efficiency LE>  (208) 
nan

>  <Ligand Efficiency LLE>  (208) 
nan

>  <Ligand Efficiency SEI>  (208) 
nan

>  <ALogP>  (208) 
3.99

>  <Assay Organism>  (208) 
nan

>  <Assay Tissue ChEMBL ID>  (208) 
nan

>  <Assay Tissue Name>  (208) 
nan

>  <Assay Cell Type>  (208) 
nan

>  <Assay Subcellular Fraction>  (208) 
nan

>  <Organism Tax ID>  (208) 
9606

>  <BAO Format ID>  (208) 
BAO_0000019

>  <Published Type>  (208) 
nan

>  <Published Relation>  (208) 
nan

>  <Published Value>  (208) 
nan

>  <Published Units>  (208) 
nan

>  <Canonical Smiles>  (208) 
CN(C)CC(C)(C)CNc1nccc(n1)c2c(nc3cnccn23)c4ccc(F)cc4

>  <Data Validity Comment>  (208) 
nan

>  <Document Journal>  (208) 
nan

>  <Document Year>  (208) 
nan

>  <SRC ID>  (208) 
7

>  <UO Units>  (208) 
UO_0000065

>  <Potential Duplicate>  (208) 
False

>  <Class>  (208) 
0

$$$$

     RDKit          2D

 23 25  0  0  0  0  0  0  0  0999 V2000
   -6.1170   -7.0506    0.0000 C   0  0  0  0  0  0  0  0  0  0  0  0
   -4.6904   -6.5871    0.0000 C   0  0  0  0  0  0  0  0  0  0  0  0
   -4.3786   -5.1199    0.0000 C   0  0  0  0  0  0  0  0  0  0  0  0
   -2.9520   -4.6564    0.0000 C   0  0  0  0  0  0  0  0  0  0  0  0
   -1.8373   -5.6601    0.0000 O   0  0  0  0  0  0  0  0  0  0  0  0
   -2.6401   -3.1891    0.0000 N   0  0  0  0  0  0  0  0  0  0  0  0
   -1.2135   -2.7256    0.0000 C   0  0  0  0  0  0  0  0  0  0  0  0
   -0.0000   -3.6073    0.0000 N   0  0  0  0  0  0  0  0  0  0  0  0
    1.2135   -2.7256    0.0000 N   0  0  0  0  0  0  0  0  0  0  0  0
    0.7500   -1.2990    0.0000 C   0  0  0  0  0  0  0  0  0  0  0  0
    1.5000    0.0000    0.0000 N   0  0  0  0  0  0  0  0  0  0  0  0
    0.7500    1.2990    0.0000 N   0  0  0  0  0  0  0  0  0  0  0  0
   -0.7500    1.2990    0.0000 C   0  0  0  0  0  0  0  0  0  0  0  0
   -1.5000    0.0000    0.0000 C   0  0  0  0  0  0  0  0  0  0  0  0
   -0.7500   -1.2990    0.0000 C   0  0  0  0  0  0  0  0  0  0  0  0
   -1.5000    2.5981    0.0000 C   0  0  0  0  0  0  0  0  0  0  0  0
   -0.7500    3.8971    0.0000 C   0  0  0  0  0  0  0  0  0  0  0  0
   -1.5000    5.1962    0.0000 C   0  0  0  0  0  0  0  0  0  0  0  0
   -3.0000    5.1962    0.0000 C   0  0  0  0  0  0  0  0  0  0  0  0
   -3.7500    3.8971    0.0000 C   0  0  0  0  0  0  0  0  0  0  0  0
   -5.2500    3.8971    0.0000 F   0  0  0  0  0  0  0  0  0  0  0  0
   -3.0000    2.5981    0.0000 C   0  0  0  0  0  0  0  0  0  0  0  0
   -3.7500    1.2990    0.0000 F   0  0  0  0  0  0  0  0  0  0  0  0
  1  2  1  0
  2  3  1  0
  3  4  1  0
  4  5  2  0
  4  6  1  0
  6  7  1  0
  7  8  2  0
  8  9  1  0
  9 10  1  0
 10 11  2  0
 11 12  1  0
 12 13  2  0
 13 14  1  0
 14 15  2  0
 13 16  1  0
 16 17  2  0
 17 18  1  0
 18 19  2  0
 19 20  1  0
 20 21  1  0
 20 22  2  0
 22 23  1  0
 15  7  1  0
 15 10  1  0
 22 16  1  0
M  END
>  <Molecule>  (209) 
CHEMBL1979970

>  <Standard Type>  (209) 
Ki

>  <Standard Relation>  (209) 
>

>  <Standard Value>  (209) 
1584.89

>  <Standard Units>  (209) 
nM

>  <pChEMBL Value>  (209) 
nan

>  <Comment>  (209) 
inactive

>  <Compound Key>  (209) 
SID103905386

>  <Assay>  (209) 
CHEMBL1963742

>  <Assay Description>  (209) 
PUBCHEM_BIOASSAY: Navigating the Kinome. (Class of assay: other) Panel member name: JAK3

>  <BAO Format>  (209) 
assay format

>  <Target>  (209) 
CHEMBL2148

>  <Target Pref. Name>  (209) 
Tyrosine-protein kinase JAK3

>  <Target Organism>  (209) 
Homo sapiens

>  <Target Type>  (209) 
SINGLE PROTEIN

>  <Document>  (209) 
CHEMBL1201862

>  <Source>  (209) 
PubChem BioAssays

>  <Max Phase>  (209) 
0

>  <#Ro5 Violations>  (209) 
0

>  <Molecular Weight>  (209) 
317.3

>  <Ligand Efficiency BEI>  (209) 
nan

>  <Ligand Efficiency LE>  (209) 
nan

>  <Ligand Efficiency LLE>  (209) 
nan

>  <Ligand Efficiency SEI>  (209) 
nan

>  <ALogP>  (209) 
3.04

>  <Assay Organism>  (209) 
nan

>  <Assay Tissue ChEMBL ID>  (209) 
nan

>  <Assay Tissue Name>  (209) 
nan

>  <Assay Cell Type>  (209) 
nan

>  <Assay Subcellular Fraction>  (209) 
nan

>  <Organism Tax ID>  (209) 
9606

>  <BAO Format ID>  (209) 
BAO_0000019

>  <Published Type>  (209) 
nan

>  <Published Relation>  (209) 
nan

>  <Published Value>  (209) 
nan

>  <Published Units>  (209) 
nan

>  <Canonical Smiles>  (209) 
CCCC(=O)Nc1n[nH]c2nnc(cc12)c3cccc(F)c3F

>  <Data Validity Comment>  (209) 
nan

>  <Document Journal>  (209) 
nan

>  <Document Year>  (209) 
nan

>  <SRC ID>  (209) 
7

>  <UO Units>  (209) 
UO_0000065

>  <Potential Duplicate>  (209) 
False

>  <Class>  (209) 
0

$$$$

     RDKit          2D

 19 20  0  0  0  0  0  0  0  0999 V2000
    3.7500   -3.8971    0.0000 C   0  0  0  0  0  0  0  0  0  0  0  0
    3.0000   -2.5981    0.0000 C   0  0  0  0  0  0  0  0  0  0  0  0
    1.5000   -2.5981    0.0000 C   0  0  0  0  0  0  0  0  0  0  0  0
    3.7500   -1.2990    0.0000 C   0  0  0  0  0  0  0  0  0  0  0  0
    5.2500   -1.2990    0.0000 C   0  0  0  0  0  0  0  0  0  0  0  0
    3.0000    0.0000    0.0000 N   0  0  0  0  0  0  0  0  0  0  0  0
    1.5000    0.0000    0.0000 C   0  0  0  0  0  0  0  0  0  0  0  0
    0.7500   -1.2990    0.0000 N   0  0  0  0  0  0  0  0  0  0  0  0
   -0.7500   -1.2990    0.0000 C   0  0  0  0  0  0  0  0  0  0  0  0
   -1.5000    0.0000    0.0000 C   0  0  0  0  0  0  0  0  0  0  0  0
   -3.0000    0.0000    0.0000 Cl  0  0  0  0  0  0  0  0  0  0  0  0
   -0.7500    1.2990    0.0000 C   0  0  0  0  0  0  0  0  0  0  0  0
   -1.5000    2.5981    0.0000 N   0  0  0  0  0  0  0  0  0  0  0  0
   -0.7500    3.8971    0.0000 C   0  0  0  0  0  0  0  0  0  0  0  0
   -1.3601    5.2674    0.0000 N   0  0  0  0  0  0  0  0  0  0  0  0
   -0.2454    6.2711    0.0000 C   0  0  0  0  0  0  0  0  0  0  0  0
    1.0537    5.5211    0.0000 C   0  0  0  0  0  0  0  0  0  0  0  0
    0.7418    4.0539    0.0000 S   0  0  0  0  0  0  0  0  0  0  0  0
    0.7500    1.2990    0.0000 N   0  0  0  0  0  0  0  0  0  0  0  0
  1  2  1  0
  2  3  1  0
  2  4  1  0
  4  5  1  0
  4  6  1  0
  6  7  1  0
  7  8  2  0
  8  9  1  0
  9 10  2  0
 10 11  1  0
 10 12  1  0
 12 13  1  0
 13 14  1  0
 14 15  2  0
 15 16  1  0
 16 17  2  0
 17 18  1  0
 12 19  2  0
 19  7  1  0
 18 14  1  0
M  END
>  <Molecule>  (210) 
CHEMBL1993374

>  <Standard Type>  (210) 
Ki

>  <Standard Relation>  (210) 
>

>  <Standard Value>  (210) 
5011.87

>  <Standard Units>  (210) 
nM

>  <pChEMBL Value>  (210) 
nan

>  <Comment>  (210) 
inactive

>  <Compound Key>  (210) 
SID103904936

>  <Assay>  (210) 
CHEMBL1963742

>  <Assay Description>  (210) 
PUBCHEM_BIOASSAY: Navigating the Kinome. (Class of assay: other) Panel member name: JAK3

>  <BAO Format>  (210) 
assay format

>  <Target>  (210) 
CHEMBL2148

>  <Target Pref. Name>  (210) 
Tyrosine-protein kinase JAK3

>  <Target Organism>  (210) 
Homo sapiens

>  <Target Type>  (210) 
SINGLE PROTEIN

>  <Document>  (210) 
CHEMBL1201862

>  <Source>  (210) 
PubChem BioAssays

>  <Max Phase>  (210) 
0

>  <#Ro5 Violations>  (210) 
0

>  <Molecular Weight>  (210) 
297.82

>  <Ligand Efficiency BEI>  (210) 
nan

>  <Ligand Efficiency LE>  (210) 
nan

>  <Ligand Efficiency LLE>  (210) 
nan

>  <Ligand Efficiency SEI>  (210) 
nan

>  <ALogP>  (210) 
3.79

>  <Assay Organism>  (210) 
nan

>  <Assay Tissue ChEMBL ID>  (210) 
nan

>  <Assay Tissue Name>  (210) 
nan

>  <Assay Cell Type>  (210) 
nan

>  <Assay Subcellular Fraction>  (210) 
nan

>  <Organism Tax ID>  (210) 
9606

>  <BAO Format ID>  (210) 
BAO_0000019

>  <Published Type>  (210) 
nan

>  <Published Relation>  (210) 
nan

>  <Published Value>  (210) 
nan

>  <Published Units>  (210) 
nan

>  <Canonical Smiles>  (210) 
CC(C)C(C)Nc1ncc(Cl)c(Nc2nccs2)n1

>  <Data Validity Comment>  (210) 
nan

>  <Document Journal>  (210) 
nan

>  <Document Year>  (210) 
nan

>  <SRC ID>  (210) 
7

>  <UO Units>  (210) 
UO_0000065

>  <Potential Duplicate>  (210) 
False

>  <Class>  (210) 
0

$$$$

     RDKit          2D

 36 40  0  0  0  0  0  0  0  0999 V2000
    8.0406   12.1352    0.0000 C   0  0  0  0  0  0  0  0  0  0  0  0
    7.5771   10.7086    0.0000 C   0  0  0  0  0  0  0  0  0  0  0  0
    8.5808    9.5939    0.0000 C   0  0  0  0  0  0  0  0  0  0  0  0
    8.1173    8.1673    0.0000 C   0  0  0  0  0  0  0  0  0  0  0  0
    6.6501    7.8555    0.0000 C   0  0  0  0  0  0  0  0  0  0  0  0
    5.6464    8.9702    0.0000 C   0  0  0  0  0  0  0  0  0  0  0  0
    4.1791    8.6583    0.0000 N   0  0  0  0  0  0  0  0  0  0  0  0
    3.7156    7.2317    0.0000 C   0  0  0  0  0  0  0  0  0  0  0  0
    4.7193    6.1170    0.0000 O   0  0  0  0  0  0  0  0  0  0  0  0
    2.2484    6.9199    0.0000 N   0  0  0  0  0  0  0  0  0  0  0  0
    1.7849    5.4933    0.0000 C   0  0  0  0  0  0  0  0  0  0  0  0
    0.3177    5.1814    0.0000 C   0  0  0  0  0  0  0  0  0  0  0  0
   -0.1459    3.7548    0.0000 C   0  0  0  0  0  0  0  0  0  0  0  0
    0.8578    2.6401    0.0000 C   0  0  0  0  0  0  0  0  0  0  0  0
    2.3250    2.9520    0.0000 C   0  0  0  0  0  0  0  0  0  0  0  0
    2.7886    4.3786    0.0000 C   0  0  0  0  0  0  0  0  0  0  0  0
    0.3943    1.2135    0.0000 C   0  0  0  0  0  0  0  0  0  0  0  0
    1.2760    0.0000    0.0000 C   0  0  0  0  0  0  0  0  0  0  0  0
    0.3943   -1.2135    0.0000 S   0  0  0  0  0  0  0  0  0  0  0  0
   -1.0323   -0.7500    0.0000 C   0  0  0  0  0  0  0  0  0  0  0  0
   -2.3313   -1.5000    0.0000 C   0  0  0  0  0  0  0  0  0  0  0  0
   -3.6304   -0.7500    0.0000 C   0  0  0  0  0  0  0  0  0  0  0  0
   -3.6304    0.7500    0.0000 N   0  0  0  0  0  0  0  0  0  0  0  0
   -2.3313    1.5000    0.0000 C   0  0  0  0  0  0  0  0  0  0  0  0
   -2.3313    3.0000    0.0000 N   0  0  0  0  0  0  0  0  0  0  0  0
   -1.0323    0.7500    0.0000 C   0  0  0  0  0  0  0  0  0  0  0  0
   -2.3313   -3.0000    0.0000 C   0  0  0  0  0  0  0  0  0  0  0  0
   -2.3313   -4.5000    0.0000 C   0  0  0  0  0  0  0  0  0  0  0  0
   -2.3313   -6.0000    0.0000 C   0  0  0  0  0  0  0  0  0  0  0  0
   -3.6304   -6.7500    0.0000 N   0  0  0  0  0  0  0  0  0  0  0  0
   -4.9294   -6.0000    0.0000 C   0  0  0  0  0  0  0  0  0  0  0  0
   -6.2284   -6.7500    0.0000 C   0  0  0  0  0  0  0  0  0  0  0  0
   -6.2284   -8.2500    0.0000 O   0  0  0  0  0  0  0  0  0  0  0  0
   -4.9294   -9.0000    0.0000 C   0  0  0  0  0  0  0  0  0  0  0  0
   -3.6304   -8.2500    0.0000 C   0  0  0  0  0  0  0  0  0  0  0  0
    6.1099   10.3968    0.0000 C   0  0  0  0  0  0  0  0  0  0  0  0
  1  2  1  0
  2  3  2  0
  3  4  1  0
  4  5  2  0
  5  6  1  0
  6  7  1  0
  7  8  1  0
  8  9  2  0
  8 10  1  0
 10 11  1  0
 11 12  2  0
 12 13  1  0
 13 14  2  0
 14 15  1  0
 15 16  2  0
 14 17  1  0
 17 18  2  0
 18 19  1  0
 19 20  1  0
 20 21  2  0
 21 22  1  0
 22 23  2  0
 23 24  1  0
 24 25  1  0
 24 26  2  0
 21 27  1  0
 27 28  3  0
 28 29  1  0
 29 30  1  0
 30 31  1  0
 31 32  1  0
 32 33  1  0
 33 34  1  0
 34 35  1  0
  6 36  2  0
 36  2  1  0
 16 11  1  0
 26 17  1  0
 26 20  1  0
 35 30  1  0
M  END
>  <Molecule>  (211) 
CHEMBL1982465

>  <Standard Type>  (211) 
Ki

>  <Standard Relation>  (211) 
=

>  <Standard Value>  (211) 
1258.93

>  <Standard Units>  (211) 
nM

>  <pChEMBL Value>  (211) 
5.9

>  <Comment>  (211) 
active

>  <Compound Key>  (211) 
SID103904307

>  <Assay>  (211) 
CHEMBL1963742

>  <Assay Description>  (211) 
PUBCHEM_BIOASSAY: Navigating the Kinome. (Class of assay: other) Panel member name: JAK3

>  <BAO Format>  (211) 
assay format

>  <Target>  (211) 
CHEMBL2148

>  <Target Pref. Name>  (211) 
Tyrosine-protein kinase JAK3

>  <Target Organism>  (211) 
Homo sapiens

>  <Target Type>  (211) 
SINGLE PROTEIN

>  <Document>  (211) 
CHEMBL1201862

>  <Source>  (211) 
PubChem BioAssays

>  <Max Phase>  (211) 
0

>  <#Ro5 Violations>  (211) 
1

>  <Molecular Weight>  (211) 
497.62

>  <Ligand Efficiency BEI>  (211) 
nan

>  <Ligand Efficiency LE>  (211) 
nan

>  <Ligand Efficiency LLE>  (211) 
nan

>  <Ligand Efficiency SEI>  (211) 
nan

>  <ALogP>  (211) 
5.18

>  <Assay Organism>  (211) 
nan

>  <Assay Tissue ChEMBL ID>  (211) 
nan

>  <Assay Tissue Name>  (211) 
nan

>  <Assay Cell Type>  (211) 
nan

>  <Assay Subcellular Fraction>  (211) 
nan

>  <Organism Tax ID>  (211) 
9606

>  <BAO Format ID>  (211) 
BAO_0000019

>  <Published Type>  (211) 
nan

>  <Published Relation>  (211) 
nan

>  <Published Value>  (211) 
nan

>  <Published Units>  (211) 
nan

>  <Canonical Smiles>  (211) 
Cc1cccc(NC(=O)Nc2ccc(cc2)c3csc4c(cnc(N)c34)C#CCN5CCOCC5)c1

>  <Data Validity Comment>  (211) 
nan

>  <Document Journal>  (211) 
nan

>  <Document Year>  (211) 
nan

>  <SRC ID>  (211) 
7

>  <UO Units>  (211) 
UO_0000065

>  <Potential Duplicate>  (211) 
False

>  <Class>  (211) 
1

$$$$

     RDKit          2D

 19 21  0  0  0  0  0  0  0  0999 V2000
   -7.0969    9.7066    0.0000 Cl  0  0  0  0  0  0  0  0  0  0  0  0
   -5.9821    8.7029    0.0000 C   0  0  0  0  0  0  0  0  0  0  0  0
   -4.5556    9.1664    0.0000 C   0  0  0  0  0  0  0  0  0  0  0  0
   -3.4408    8.1628    0.0000 C   0  0  0  0  0  0  0  0  0  0  0  0
   -3.7527    6.6955    0.0000 C   0  0  0  0  0  0  0  0  0  0  0  0
   -5.1793    6.2320    0.0000 C   0  0  0  0  0  0  0  0  0  0  0  0
   -6.2940    7.2357    0.0000 C   0  0  0  0  0  0  0  0  0  0  0  0
   -2.6380    5.6918    0.0000 C   0  0  0  0  0  0  0  0  0  0  0  0
   -1.2114    6.1554    0.0000 O   0  0  0  0  0  0  0  0  0  0  0  0
   -2.9499    4.2246    0.0000 N   0  0  0  0  0  0  0  0  0  0  0  0
   -1.8351    3.2209    0.0000 C   0  0  0  0  0  0  0  0  0  0  0  0
   -0.4086    3.6844    0.0000 C   0  0  0  0  0  0  0  0  0  0  0  0
    0.7062    2.6807    0.0000 C   0  0  0  0  0  0  0  0  0  0  0  0
    0.3943    1.2135    0.0000 C   0  0  0  0  0  0  0  0  0  0  0  0
    1.2760    0.0000    0.0000 C   0  0  0  0  0  0  0  0  0  0  0  0
    0.3943   -1.2135    0.0000 N   0  0  0  0  0  0  0  0  0  0  0  0
   -1.0323   -0.7500    0.0000 N   0  0  0  0  0  0  0  0  0  0  0  0
   -1.0323    0.7500    0.0000 C   0  0  0  0  0  0  0  0  0  0  0  0
   -2.1470    1.7537    0.0000 C   0  0  0  0  0  0  0  0  0  0  0  0
  1  2  1  0
  2  3  2  0
  3  4  1  0
  4  5  2  0
  5  6  1  0
  6  7  2  0
  5  8  1  0
  8  9  2  0
  8 10  1  0
 10 11  1  0
 11 12  2  0
 12 13  1  0
 13 14  2  0
 14 15  1  0
 15 16  2  0
 16 17  1  0
 17 18  1  0
 18 19  2  0
  7  2  1  0
 19 11  1  0
 18 14  1  0
M  END
>  <Molecule>  (212) 
CHEMBL1972489

>  <Standard Type>  (212) 
Ki

>  <Standard Relation>  (212) 
>

>  <Standard Value>  (212) 
1584.89

>  <Standard Units>  (212) 
nM

>  <pChEMBL Value>  (212) 
nan

>  <Comment>  (212) 
inactive

>  <Compound Key>  (212) 
SID103904665

>  <Assay>  (212) 
CHEMBL1963742

>  <Assay Description>  (212) 
PUBCHEM_BIOASSAY: Navigating the Kinome. (Class of assay: other) Panel member name: JAK3

>  <BAO Format>  (212) 
assay format

>  <Target>  (212) 
CHEMBL2148

>  <Target Pref. Name>  (212) 
Tyrosine-protein kinase JAK3

>  <Target Organism>  (212) 
Homo sapiens

>  <Target Type>  (212) 
SINGLE PROTEIN

>  <Document>  (212) 
CHEMBL1201862

>  <Source>  (212) 
PubChem BioAssays

>  <Max Phase>  (212) 
0

>  <#Ro5 Violations>  (212) 
0

>  <Molecular Weight>  (212) 
271.71

>  <Ligand Efficiency BEI>  (212) 
nan

>  <Ligand Efficiency LE>  (212) 
nan

>  <Ligand Efficiency LLE>  (212) 
nan

>  <Ligand Efficiency SEI>  (212) 
nan

>  <ALogP>  (212) 
3.47

>  <Assay Organism>  (212) 
nan

>  <Assay Tissue ChEMBL ID>  (212) 
nan

>  <Assay Tissue Name>  (212) 
nan

>  <Assay Cell Type>  (212) 
nan

>  <Assay Subcellular Fraction>  (212) 
nan

>  <Organism Tax ID>  (212) 
9606

>  <BAO Format ID>  (212) 
BAO_0000019

>  <Published Type>  (212) 
nan

>  <Published Relation>  (212) 
nan

>  <Published Value>  (212) 
nan

>  <Published Units>  (212) 
nan

>  <Canonical Smiles>  (212) 
Clc1ccc(cc1)C(=O)Nc2ccc3cn[nH]c3c2

>  <Data Validity Comment>  (212) 
nan

>  <Document Journal>  (212) 
nan

>  <Document Year>  (212) 
nan

>  <SRC ID>  (212) 
7

>  <UO Units>  (212) 
UO_0000065

>  <Potential Duplicate>  (212) 
False

>  <Class>  (212) 
0

$$$$

     RDKit          2D

 20 22  0  0  0  0  0  0  0  0999 V2000
   -5.1962   -8.1073    0.0000 C   0  0  0  0  0  0  0  0  0  0  0  0
   -3.8971   -7.3573    0.0000 C   0  0  0  0  0  0  0  0  0  0  0  0
   -3.8971   -5.8573    0.0000 C   0  0  0  0  0  0  0  0  0  0  0  0
   -2.5981   -5.1073    0.0000 C   0  0  0  0  0  0  0  0  0  0  0  0
   -1.2990   -5.8573    0.0000 C   0  0  0  0  0  0  0  0  0  0  0  0
   -0.0000   -5.1073    0.0000 N   0  0  0  0  0  0  0  0  0  0  0  0
   -0.0000   -3.6073    0.0000 C   0  0  0  0  0  0  0  0  0  0  0  0
    1.2135   -2.7256    0.0000 N   0  0  0  0  0  0  0  0  0  0  0  0
    0.7500   -1.2990    0.0000 C   0  0  0  0  0  0  0  0  0  0  0  0
    1.5000    0.0000    0.0000 C   0  0  0  0  0  0  0  0  0  0  0  0
    0.7500    1.2990    0.0000 C   0  0  0  0  0  0  0  0  0  0  0  0
   -0.7500    1.2990    0.0000 C   0  0  0  0  0  0  0  0  0  0  0  0
   -1.5000    0.0000    0.0000 C   0  0  0  0  0  0  0  0  0  0  0  0
   -0.7500   -1.2990    0.0000 C   0  0  0  0  0  0  0  0  0  0  0  0
   -1.2135   -2.7256    0.0000 N   0  0  0  0  0  0  0  0  0  0  0  0
   -1.5000    2.5981    0.0000 N   0  0  0  0  0  0  0  0  0  0  0  0
   -3.0000    2.5981    0.0000 O   0  0  0  0  0  0  0  0  0  0  0  0
   -0.7500    3.8971    0.0000 O   0  0  0  0  0  0  0  0  0  0  0  0
   -1.2990   -7.3573    0.0000 N   0  0  0  0  0  0  0  0  0  0  0  0
   -2.5981   -8.1073    0.0000 C   0  0  0  0  0  0  0  0  0  0  0  0
  1  2  1  0
  2  3  2  0
  3  4  1  0
  4  5  2  0
  5  6  1  0
  6  7  1  0
  7  8  2  0
  8  9  1  0
  9 10  2  0
 10 11  1  0
 11 12  2  0
 12 13  1  0
 13 14  2  0
 14 15  1  0
 12 16  1  0
 16 17  2  0
 16 18  1  0
  5 19  1  0
 19 20  2  0
 20  2  1  0
 15  7  1  0
 14  9  1  0
M  CHG  2  16   1  18  -1
M  END
>  <Molecule>  (213) 
CHEMBL1992937

>  <Standard Type>  (213) 
Ki

>  <Standard Relation>  (213) 
>

>  <Standard Value>  (213) 
3981.07

>  <Standard Units>  (213) 
nM

>  <pChEMBL Value>  (213) 
nan

>  <Comment>  (213) 
inactive

>  <Compound Key>  (213) 
SID103905536

>  <Assay>  (213) 
CHEMBL1963742

>  <Assay Description>  (213) 
PUBCHEM_BIOASSAY: Navigating the Kinome. (Class of assay: other) Panel member name: JAK3

>  <BAO Format>  (213) 
assay format

>  <Target>  (213) 
CHEMBL2148

>  <Target Pref. Name>  (213) 
Tyrosine-protein kinase JAK3

>  <Target Organism>  (213) 
Homo sapiens

>  <Target Type>  (213) 
SINGLE PROTEIN

>  <Document>  (213) 
CHEMBL1201862

>  <Source>  (213) 
PubChem BioAssays

>  <Max Phase>  (213) 
0

>  <#Ro5 Violations>  (213) 
0

>  <Molecular Weight>  (213) 
269.26

>  <Ligand Efficiency BEI>  (213) 
nan

>  <Ligand Efficiency LE>  (213) 
nan

>  <Ligand Efficiency LLE>  (213) 
nan

>  <Ligand Efficiency SEI>  (213) 
nan

>  <ALogP>  (213) 
2.92

>  <Assay Organism>  (213) 
nan

>  <Assay Tissue ChEMBL ID>  (213) 
nan

>  <Assay Tissue Name>  (213) 
nan

>  <Assay Cell Type>  (213) 
nan

>  <Assay Subcellular Fraction>  (213) 
nan

>  <Organism Tax ID>  (213) 
9606

>  <BAO Format ID>  (213) 
BAO_0000019

>  <Published Type>  (213) 
nan

>  <Published Relation>  (213) 
nan

>  <Published Value>  (213) 
nan

>  <Published Units>  (213) 
nan

>  <Canonical Smiles>  (213) 
Cc1ccc(Nc2nc3ccc(cc3[nH]2)[N+](=O)[O-])nc1

>  <Data Validity Comment>  (213) 
nan

>  <Document Journal>  (213) 
nan

>  <Document Year>  (213) 
nan

>  <SRC ID>  (213) 
7

>  <UO Units>  (213) 
UO_0000065

>  <Potential Duplicate>  (213) 
False

>  <Class>  (213) 
0

$$$$

     RDKit          2D

 22 25  0  0  0  0  0  0  0  0999 V2000
   -3.3605    8.7974    0.0000 C   0  0  0  0  0  0  0  0  0  0  0  0
   -4.4752    7.7937    0.0000 N   0  0  0  0  0  0  0  0  0  0  0  0
   -4.1634    6.3265    0.0000 C   0  0  0  0  0  0  0  0  0  0  0  0
   -2.7931    5.7164    0.0000 N   0  0  0  0  0  0  0  0  0  0  0  0
   -2.9499    4.2246    0.0000 C   0  0  0  0  0  0  0  0  0  0  0  0
   -4.4171    3.9127    0.0000 C   0  0  0  0  0  0  0  0  0  0  0  0
   -5.1671    5.2118    0.0000 S   0  0  0  0  0  0  0  0  0  0  0  0
   -1.8351    3.2209    0.0000 C   0  0  0  0  0  0  0  0  0  0  0  0
   -0.4086    3.6844    0.0000 C   0  0  0  0  0  0  0  0  0  0  0  0
    0.7062    2.6807    0.0000 C   0  0  0  0  0  0  0  0  0  0  0  0
    0.3943    1.2135    0.0000 C   0  0  0  0  0  0  0  0  0  0  0  0
    1.2760    0.0000    0.0000 N   0  0  0  0  0  0  0  0  0  0  0  0
    0.3943   -1.2135    0.0000 N   0  0  0  0  0  0  0  0  0  0  0  0
   -1.0323   -0.7500    0.0000 C   0  0  0  0  0  0  0  0  0  0  0  0
   -1.0323    0.7500    0.0000 C   0  0  0  0  0  0  0  0  0  0  0  0
   -2.1470    1.7537    0.0000 C   0  0  0  0  0  0  0  0  0  0  0  0
   -3.6724   10.2646    0.0000 C   0  0  0  0  0  0  0  0  0  0  0  0
   -2.5577   11.2683    0.0000 C   0  0  0  0  0  0  0  0  0  0  0  0
   -2.8695   12.7356    0.0000 C   0  0  0  0  0  0  0  0  0  0  0  0
   -4.2961   13.1991    0.0000 C   0  0  0  0  0  0  0  0  0  0  0  0
   -5.4108   12.1954    0.0000 C   0  0  0  0  0  0  0  0  0  0  0  0
   -5.0990   10.7282    0.0000 C   0  0  0  0  0  0  0  0  0  0  0  0
  1  2  1  0
  2  3  1  0
  3  4  2  0
  4  5  1  0
  5  6  2  0
  6  7  1  0
  5  8  1  0
  8  9  2  0
  9 10  1  0
 10 11  2  0
 11 12  1  0
 12 13  1  0
 13 14  2  0
 14 15  1  0
 15 16  2  0
  1 17  1  0
 17 18  2  0
 18 19  1  0
 19 20  2  0
 20 21  1  0
 21 22  2  0
  7  3  1  0
 16  8  1  0
 15 11  1  0
 22 17  1  0
M  END
>  <Molecule>  (214) 
CHEMBL1682546

>  <Standard Type>  (214) 
Ki

>  <Standard Relation>  (214) 
>

>  <Standard Value>  (214) 
1584.89

>  <Standard Units>  (214) 
nM

>  <pChEMBL Value>  (214) 
nan

>  <Comment>  (214) 
inactive

>  <Compound Key>  (214) 
SID103904545

>  <Assay>  (214) 
CHEMBL1963742

>  <Assay Description>  (214) 
PUBCHEM_BIOASSAY: Navigating the Kinome. (Class of assay: other) Panel member name: JAK3

>  <BAO Format>  (214) 
assay format

>  <Target>  (214) 
CHEMBL2148

>  <Target Pref. Name>  (214) 
Tyrosine-protein kinase JAK3

>  <Target Organism>  (214) 
Homo sapiens

>  <Target Type>  (214) 
SINGLE PROTEIN

>  <Document>  (214) 
CHEMBL1201862

>  <Source>  (214) 
PubChem BioAssays

>  <Max Phase>  (214) 
0

>  <#Ro5 Violations>  (214) 
0

>  <Molecular Weight>  (214) 
306.39

>  <Ligand Efficiency BEI>  (214) 
nan

>  <Ligand Efficiency LE>  (214) 
nan

>  <Ligand Efficiency LLE>  (214) 
nan

>  <Ligand Efficiency SEI>  (214) 
nan

>  <ALogP>  (214) 
4.3

>  <Assay Organism>  (214) 
nan

>  <Assay Tissue ChEMBL ID>  (214) 
nan

>  <Assay Tissue Name>  (214) 
nan

>  <Assay Cell Type>  (214) 
nan

>  <Assay Subcellular Fraction>  (214) 
nan

>  <Organism Tax ID>  (214) 
9606

>  <BAO Format ID>  (214) 
BAO_0000019

>  <Published Type>  (214) 
nan

>  <Published Relation>  (214) 
nan

>  <Published Value>  (214) 
nan

>  <Published Units>  (214) 
nan

>  <Canonical Smiles>  (214) 
C(Nc1nc(cs1)c2ccc3[nH]ncc3c2)c4ccccc4

>  <Data Validity Comment>  (214) 
nan

>  <Document Journal>  (214) 
nan

>  <Document Year>  (214) 
nan

>  <SRC ID>  (214) 
7

>  <UO Units>  (214) 
UO_0000065

>  <Potential Duplicate>  (214) 
False

>  <Class>  (214) 
0

$$$$

     RDKit          2D

 22 24  0  0  0  0  0  0  0  0999 V2000
   -4.5000   -7.7942    0.0000 C   0  0  0  0  0  0  0  0  0  0  0  0
   -3.0000   -7.7942    0.0000 S   0  0  0  0  0  0  0  0  0  0  0  0
   -3.0000   -6.2942    0.0000 O   0  0  0  0  0  0  0  0  0  0  0  0
   -3.0000   -9.2942    0.0000 O   0  0  0  0  0  0  0  0  0  0  0  0
   -1.5000   -7.7942    0.0000 N   0  0  0  0  0  0  0  0  0  0  0  0
   -0.7500   -6.4952    0.0000 C   0  0  0  0  0  0  0  0  0  0  0  0
   -1.5000   -5.1962    0.0000 C   0  0  0  0  0  0  0  0  0  0  0  0
   -0.7500   -3.8971    0.0000 C   0  0  0  0  0  0  0  0  0  0  0  0
    0.7500   -3.8971    0.0000 C   0  0  0  0  0  0  0  0  0  0  0  0
    1.5000   -2.5981    0.0000 N   0  0  0  0  0  0  0  0  0  0  0  0
    0.7500   -1.2990    0.0000 C   0  0  0  0  0  0  0  0  0  0  0  0
    1.5000    0.0000    0.0000 C   0  0  0  0  0  0  0  0  0  0  0  0
    0.7500    1.2990    0.0000 C   0  0  0  0  0  0  0  0  0  0  0  0
   -0.7500    1.2990    0.0000 C   0  0  0  0  0  0  0  0  0  0  0  0
   -1.7537    2.4138    0.0000 N   0  0  0  0  0  0  0  0  0  0  0  0
   -3.1240    1.8037    0.0000 N   0  0  0  0  0  0  0  0  0  0  0  0
   -2.9672    0.3119    0.0000 C   0  0  0  0  0  0  0  0  0  0  0  0
   -4.0819   -0.6918    0.0000 N   0  0  0  0  0  0  0  0  0  0  0  0
   -1.5000    0.0000    0.0000 C   0  0  0  0  0  0  0  0  0  0  0  0
   -0.7500   -1.2990    0.0000 C   0  0  0  0  0  0  0  0  0  0  0  0
    1.5000   -5.1962    0.0000 C   0  0  0  0  0  0  0  0  0  0  0  0
    0.7500   -6.4952    0.0000 C   0  0  0  0  0  0  0  0  0  0  0  0
  1  2  1  0
  2  3  2  0
  2  4  2  0
  2  5  1  0
  5  6  1  0
  6  7  2  0
  7  8  1  0
  8  9  2  0
  9 10  1  0
 10 11  1  0
 11 12  2  0
 12 13  1  0
 13 14  2  0
 14 15  1  0
 15 16  1  0
 16 17  2  0
 17 18  1  0
 17 19  1  0
 19 20  2  0
  9 21  1  0
 21 22  2  0
 22  6  1  0
 20 11  1  0
 19 14  1  0
M  END
>  <Molecule>  (215) 
CHEMBL1988872

>  <Standard Type>  (215) 
Ki

>  <Standard Relation>  (215) 
>

>  <Standard Value>  (215) 
5011.87

>  <Standard Units>  (215) 
nM

>  <pChEMBL Value>  (215) 
nan

>  <Comment>  (215) 
inactive

>  <Compound Key>  (215) 
SID103905138

>  <Assay>  (215) 
CHEMBL1963742

>  <Assay Description>  (215) 
PUBCHEM_BIOASSAY: Navigating the Kinome. (Class of assay: other) Panel member name: JAK3

>  <BAO Format>  (215) 
assay format

>  <Target>  (215) 
CHEMBL2148

>  <Target Pref. Name>  (215) 
Tyrosine-protein kinase JAK3

>  <Target Organism>  (215) 
Homo sapiens

>  <Target Type>  (215) 
SINGLE PROTEIN

>  <Document>  (215) 
CHEMBL1201862

>  <Source>  (215) 
PubChem BioAssays

>  <Max Phase>  (215) 
0

>  <#Ro5 Violations>  (215) 
0

>  <Molecular Weight>  (215) 
317.37

>  <Ligand Efficiency BEI>  (215) 
nan

>  <Ligand Efficiency LE>  (215) 
nan

>  <Ligand Efficiency LLE>  (215) 
nan

>  <Ligand Efficiency SEI>  (215) 
nan

>  <ALogP>  (215) 
2.26

>  <Assay Organism>  (215) 
nan

>  <Assay Tissue ChEMBL ID>  (215) 
nan

>  <Assay Tissue Name>  (215) 
nan

>  <Assay Cell Type>  (215) 
nan

>  <Assay Subcellular Fraction>  (215) 
nan

>  <Organism Tax ID>  (215) 
9606

>  <BAO Format ID>  (215) 
BAO_0000019

>  <Published Type>  (215) 
nan

>  <Published Relation>  (215) 
nan

>  <Published Value>  (215) 
nan

>  <Published Units>  (215) 
nan

>  <Canonical Smiles>  (215) 
CS(=O)(=O)Nc1ccc(Nc2ccc3[nH]nc(N)c3c2)cc1

>  <Data Validity Comment>  (215) 
nan

>  <Document Journal>  (215) 
nan

>  <Document Year>  (215) 
nan

>  <SRC ID>  (215) 
7

>  <UO Units>  (215) 
UO_0000065

>  <Potential Duplicate>  (215) 
False

>  <Class>  (215) 
0

$$$$

     RDKit          2D

 29 33  0  0  0  0  0  0  0  0999 V2000
   -5.1962   -9.6073    0.0000 N   0  0  0  0  0  0  0  0  0  0  0  0
   -5.1962   -8.1073    0.0000 C   0  0  0  0  0  0  0  0  0  0  0  0
   -3.8971   -7.3573    0.0000 C   0  0  0  0  0  0  0  0  0  0  0  0
   -2.5981   -8.1073    0.0000 O   0  0  0  0  0  0  0  0  0  0  0  0
   -1.2990   -7.3573    0.0000 C   0  0  0  0  0  0  0  0  0  0  0  0
    0.0000   -8.1073    0.0000 C   0  0  0  0  0  0  0  0  0  0  0  0
    1.2990   -7.3573    0.0000 N   0  0  0  0  0  0  0  0  0  0  0  0
    1.2990   -5.8573    0.0000 C   0  0  0  0  0  0  0  0  0  0  0  0
   -0.0000   -5.1073    0.0000 C   0  0  0  0  0  0  0  0  0  0  0  0
   -1.2990   -5.8573    0.0000 C   0  0  0  0  0  0  0  0  0  0  0  0
   -0.0000   -3.6073    0.0000 C   0  0  0  0  0  0  0  0  0  0  0  0
    1.2135   -2.7256    0.0000 C   0  0  0  0  0  0  0  0  0  0  0  0
    0.7500   -1.2990    0.0000 C   0  0  0  0  0  0  0  0  0  0  0  0
    1.5000    0.0000    0.0000 C   0  0  0  0  0  0  0  0  0  0  0  0
    0.7500    1.2990    0.0000 C   0  0  0  0  0  0  0  0  0  0  0  0
   -0.7500    1.2990    0.0000 N   0  0  0  0  0  0  0  0  0  0  0  0
   -1.5000    0.0000    0.0000 C   0  0  0  0  0  0  0  0  0  0  0  0
   -0.7500   -1.2990    0.0000 C   0  0  0  0  0  0  0  0  0  0  0  0
   -1.2135   -2.7256    0.0000 S   0  0  0  0  0  0  0  0  0  0  0  0
   -6.4952   -7.3573    0.0000 C   0  0  0  0  0  0  0  0  0  0  0  0
   -7.7942   -8.1073    0.0000 C   0  0  0  0  0  0  0  0  0  0  0  0
   -7.9510   -9.5991    0.0000 C   0  0  0  0  0  0  0  0  0  0  0  0
   -9.4182   -9.9110    0.0000 N   0  0  0  0  0  0  0  0  0  0  0  0
  -10.1682   -8.6119    0.0000 C   0  0  0  0  0  0  0  0  0  0  0  0
  -11.6355   -8.3000    0.0000 C   0  0  0  0  0  0  0  0  0  0  0  0
  -12.0990   -6.8735    0.0000 C   0  0  0  0  0  0  0  0  0  0  0  0
  -11.0953   -5.7587    0.0000 C   0  0  0  0  0  0  0  0  0  0  0  0
   -9.6281   -6.0706    0.0000 C   0  0  0  0  0  0  0  0  0  0  0  0
   -9.1645   -7.4972    0.0000 C   0  0  0  0  0  0  0  0  0  0  0  0
  1  2  1  0
  2  3  1  0
  3  4  1  0
  4  5  1  0
  5  6  2  0
  6  7  1  0
  7  8  2  0
  8  9  1  0
  9 10  2  0
  9 11  1  0
 11 12  2  0
 12 13  1  0
 13 14  2  0
 14 15  1  0
 15 16  2  0
 16 17  1  0
 17 18  2  0
 18 19  1  0
  2 20  1  0
 20 21  1  0
 21 22  2  0
 22 23  1  0
 23 24  1  0
 24 25  2  0
 25 26  1  0
 26 27  2  0
 27 28  1  0
 28 29  2  0
 10  5  1  0
 19 11  1  0
 18 13  1  0
 29 21  1  0
 29 24  1  0
M  END
>  <Molecule>  (216) 
CHEMBL1966524

>  <Standard Type>  (216) 
Ki

>  <Standard Relation>  (216) 
>

>  <Standard Value>  (216) 
1584.89

>  <Standard Units>  (216) 
nM

>  <pChEMBL Value>  (216) 
nan

>  <Comment>  (216) 
inactive

>  <Compound Key>  (216) 
SID103904752

>  <Assay>  (216) 
CHEMBL1963742

>  <Assay Description>  (216) 
PUBCHEM_BIOASSAY: Navigating the Kinome. (Class of assay: other) Panel member name: JAK3

>  <BAO Format>  (216) 
assay format

>  <Target>  (216) 
CHEMBL2148

>  <Target Pref. Name>  (216) 
Tyrosine-protein kinase JAK3

>  <Target Organism>  (216) 
Homo sapiens

>  <Target Type>  (216) 
SINGLE PROTEIN

>  <Document>  (216) 
CHEMBL1201862

>  <Source>  (216) 
PubChem BioAssays

>  <Max Phase>  (216) 
0

>  <#Ro5 Violations>  (216) 
0

>  <Molecular Weight>  (216) 
400.51

>  <Ligand Efficiency BEI>  (216) 
nan

>  <Ligand Efficiency LE>  (216) 
nan

>  <Ligand Efficiency LLE>  (216) 
nan

>  <Ligand Efficiency SEI>  (216) 
nan

>  <ALogP>  (216) 
4.79

>  <Assay Organism>  (216) 
nan

>  <Assay Tissue ChEMBL ID>  (216) 
nan

>  <Assay Tissue Name>  (216) 
nan

>  <Assay Cell Type>  (216) 
nan

>  <Assay Subcellular Fraction>  (216) 
nan

>  <Organism Tax ID>  (216) 
9606

>  <BAO Format ID>  (216) 
BAO_0000019

>  <Published Type>  (216) 
nan

>  <Published Relation>  (216) 
nan

>  <Published Value>  (216) 
nan

>  <Published Units>  (216) 
nan

>  <Canonical Smiles>  (216) 
NC(COc1cncc(c1)c2cc3ccncc3s2)Cc4c[nH]c5ccccc45

>  <Data Validity Comment>  (216) 
nan

>  <Document Journal>  (216) 
nan

>  <Document Year>  (216) 
nan

>  <SRC ID>  (216) 
7

>  <UO Units>  (216) 
UO_0000065

>  <Potential Duplicate>  (216) 
False

>  <Class>  (216) 
0

$$$$

     RDKit          2D

 25 27  0  0  0  0  0  0  0  0999 V2000
    9.0000    0.0000    0.0000 F   0  0  0  0  0  0  0  0  0  0  0  0
    8.2500   -1.2990    0.0000 C   0  0  0  0  0  0  0  0  0  0  0  0
    9.5490   -2.0490    0.0000 F   0  0  0  0  0  0  0  0  0  0  0  0
    6.9510   -0.5490    0.0000 F   0  0  0  0  0  0  0  0  0  0  0  0
    7.5000   -2.5981    0.0000 C   0  0  0  0  0  0  0  0  0  0  0  0
    8.2500   -3.8971    0.0000 C   0  0  0  0  0  0  0  0  0  0  0  0
    7.5000   -5.1962    0.0000 C   0  0  0  0  0  0  0  0  0  0  0  0
    6.0000   -5.1962    0.0000 C   0  0  0  0  0  0  0  0  0  0  0  0
    5.2500   -3.8971    0.0000 C   0  0  0  0  0  0  0  0  0  0  0  0
    3.7500   -3.8971    0.0000 N   0  0  0  0  0  0  0  0  0  0  0  0
    3.0000   -2.5981    0.0000 C   0  0  0  0  0  0  0  0  0  0  0  0
    3.7500   -1.2990    0.0000 O   0  0  0  0  0  0  0  0  0  0  0  0
    1.5000   -2.5981    0.0000 N   0  0  0  0  0  0  0  0  0  0  0  0
    0.7500   -1.2990    0.0000 C   0  0  0  0  0  0  0  0  0  0  0  0
    1.5000    0.0000    0.0000 C   0  0  0  0  0  0  0  0  0  0  0  0
    0.7500    1.2990    0.0000 C   0  0  0  0  0  0  0  0  0  0  0  0
   -0.7500    1.2990    0.0000 N   0  0  0  0  0  0  0  0  0  0  0  0
   -1.5000    0.0000    0.0000 C   0  0  0  0  0  0  0  0  0  0  0  0
   -3.0000    0.0000    0.0000 C   0  0  0  0  0  0  0  0  0  0  0  0
   -3.7500   -1.2990    0.0000 C   0  0  0  0  0  0  0  0  0  0  0  0
   -3.0000   -2.5981    0.0000 C   0  0  0  0  0  0  0  0  0  0  0  0
   -3.7500   -3.8971    0.0000 Cl  0  0  0  0  0  0  0  0  0  0  0  0
   -1.5000   -2.5981    0.0000 C   0  0  0  0  0  0  0  0  0  0  0  0
   -0.7500   -1.2990    0.0000 C   0  0  0  0  0  0  0  0  0  0  0  0
    6.0000   -2.5981    0.0000 N   0  0  0  0  0  0  0  0  0  0  0  0
  1  2  1  0
  2  3  1  0
  2  4  1  0
  2  5  1  0
  5  6  2  0
  6  7  1  0
  7  8  2  0
  8  9  1  0
  9 10  1  0
 10 11  1  0
 11 12  2  0
 11 13  1  0
 13 14  1  0
 14 15  2  0
 15 16  1  0
 16 17  2  0
 17 18  1  0
 18 19  2  0
 19 20  1  0
 20 21  2  0
 21 22  1  0
 21 23  1  0
 23 24  2  0
  9 25  2  0
 25  5  1  0
 24 14  1  0
 24 18  1  0
M  END
>  <Molecule>  (217) 
CHEMBL1967513

>  <Standard Type>  (217) 
Ki

>  <Standard Relation>  (217) 
>

>  <Standard Value>  (217) 
5011.87

>  <Standard Units>  (217) 
nM

>  <pChEMBL Value>  (217) 
nan

>  <Comment>  (217) 
inactive

>  <Compound Key>  (217) 
SID103904869

>  <Assay>  (217) 
CHEMBL1963742

>  <Assay Description>  (217) 
PUBCHEM_BIOASSAY: Navigating the Kinome. (Class of assay: other) Panel member name: JAK3

>  <BAO Format>  (217) 
assay format

>  <Target>  (217) 
CHEMBL2148

>  <Target Pref. Name>  (217) 
Tyrosine-protein kinase JAK3

>  <Target Organism>  (217) 
Homo sapiens

>  <Target Type>  (217) 
SINGLE PROTEIN

>  <Document>  (217) 
CHEMBL1201862

>  <Source>  (217) 
PubChem BioAssays

>  <Max Phase>  (217) 
0

>  <#Ro5 Violations>  (217) 
0

>  <Molecular Weight>  (217) 
366.73

>  <Ligand Efficiency BEI>  (217) 
nan

>  <Ligand Efficiency LE>  (217) 
nan

>  <Ligand Efficiency LLE>  (217) 
nan

>  <Ligand Efficiency SEI>  (217) 
nan

>  <ALogP>  (217) 
4.95

>  <Assay Organism>  (217) 
nan

>  <Assay Tissue ChEMBL ID>  (217) 
nan

>  <Assay Tissue Name>  (217) 
nan

>  <Assay Cell Type>  (217) 
nan

>  <Assay Subcellular Fraction>  (217) 
nan

>  <Organism Tax ID>  (217) 
9606

>  <BAO Format ID>  (217) 
BAO_0000019

>  <Published Type>  (217) 
nan

>  <Published Relation>  (217) 
nan

>  <Published Value>  (217) 
nan

>  <Published Units>  (217) 
nan

>  <Canonical Smiles>  (217) 
FC(F)(F)c1cccc(NC(=O)Nc2ccnc3ccc(Cl)cc23)n1

>  <Data Validity Comment>  (217) 
nan

>  <Document Journal>  (217) 
nan

>  <Document Year>  (217) 
nan

>  <SRC ID>  (217) 
7

>  <UO Units>  (217) 
UO_0000065

>  <Potential Duplicate>  (217) 
False

>  <Class>  (217) 
0

$$$$

     RDKit          2D

 28 31  0  0  0  0  0  0  0  0999 V2000
   -2.6401   -3.1891    0.0000 C   0  0  0  0  0  0  0  0  0  0  0  0
   -1.2135   -2.7256    0.0000 C   0  0  0  0  0  0  0  0  0  0  0  0
   -0.0000   -3.6073    0.0000 N   0  0  0  0  0  0  0  0  0  0  0  0
    1.2135   -2.7256    0.0000 N   0  0  0  0  0  0  0  0  0  0  0  0
    0.7500   -1.2990    0.0000 C   0  0  0  0  0  0  0  0  0  0  0  0
    1.5000    0.0000    0.0000 C   0  0  0  0  0  0  0  0  0  0  0  0
    0.7500    1.2990    0.0000 C   0  0  0  0  0  0  0  0  0  0  0  0
   -0.7500    1.2990    0.0000 C   0  0  0  0  0  0  0  0  0  0  0  0
   -1.5000    0.0000    0.0000 C   0  0  0  0  0  0  0  0  0  0  0  0
   -0.7500   -1.2990    0.0000 C   0  0  0  0  0  0  0  0  0  0  0  0
   -1.5000    2.5981    0.0000 C   0  0  0  0  0  0  0  0  0  0  0  0
   -0.7500    3.8971    0.0000 C   0  0  0  0  0  0  0  0  0  0  0  0
   -1.5000    5.1962    0.0000 N   0  0  0  0  0  0  0  0  0  0  0  0
   -3.0000    5.1962    0.0000 C   0  0  0  0  0  0  0  0  0  0  0  0
   -3.7500    3.8971    0.0000 C   0  0  0  0  0  0  0  0  0  0  0  0
   -5.2500    3.8971    0.0000 O   0  0  0  0  0  0  0  0  0  0  0  0
   -6.0000    5.1962    0.0000 C   0  0  0  0  0  0  0  0  0  0  0  0
   -7.5000    5.1962    0.0000 C   0  0  0  0  0  0  0  0  0  0  0  0
   -8.2500    3.8971    0.0000 C   0  0  0  0  0  0  0  0  0  0  0  0
   -9.7500    3.8971    0.0000 N   0  0  0  0  0  0  0  0  0  0  0  0
   -8.2500    6.4952    0.0000 C   0  0  0  0  0  0  0  0  0  0  0  0
   -9.7500    6.4952    0.0000 C   0  0  0  0  0  0  0  0  0  0  0  0
  -10.5000    7.7942    0.0000 C   0  0  0  0  0  0  0  0  0  0  0  0
  -12.0000    7.7942    0.0000 C   0  0  0  0  0  0  0  0  0  0  0  0
  -12.7500    6.4952    0.0000 C   0  0  0  0  0  0  0  0  0  0  0  0
  -12.0000    5.1962    0.0000 C   0  0  0  0  0  0  0  0  0  0  0  0
  -10.5000    5.1962    0.0000 C   0  0  0  0  0  0  0  0  0  0  0  0
   -3.0000    2.5981    0.0000 C   0  0  0  0  0  0  0  0  0  0  0  0
  1  2  1  0
  2  3  2  0
  3  4  1  0
  4  5  1  0
  5  6  2  0
  6  7  1  0
  7  8  2  0
  8  9  1  0
  9 10  2  0
  8 11  1  0
 11 12  2  0
 12 13  1  0
 13 14  2  0
 14 15  1  0
 15 16  1  0
 16 17  1  0
 17 18  1  0
 18 19  1  0
 19 20  1  0
 18 21  1  0
 21 22  1  0
 22 23  2  0
 23 24  1  0
 24 25  2  0
 25 26  1  0
 26 27  2  0
 15 28  2  0
 10  2  1  0
 10  5  1  0
 28 11  1  0
 27 22  1  0
M  END
>  <Molecule>  (218) 
CHEMBL2000271

>  <Standard Type>  (218) 
Ki

>  <Standard Relation>  (218) 
>

>  <Standard Value>  (218) 
1584.89

>  <Standard Units>  (218) 
nM

>  <pChEMBL Value>  (218) 
nan

>  <Comment>  (218) 
inactive

>  <Compound Key>  (218) 
SID103904470

>  <Assay>  (218) 
CHEMBL1963742

>  <Assay Description>  (218) 
PUBCHEM_BIOASSAY: Navigating the Kinome. (Class of assay: other) Panel member name: JAK3

>  <BAO Format>  (218) 
assay format

>  <Target>  (218) 
CHEMBL2148

>  <Target Pref. Name>  (218) 
Tyrosine-protein kinase JAK3

>  <Target Organism>  (218) 
Homo sapiens

>  <Target Type>  (218) 
SINGLE PROTEIN

>  <Document>  (218) 
CHEMBL1201862

>  <Source>  (218) 
PubChem BioAssays

>  <Max Phase>  (218) 
0

>  <#Ro5 Violations>  (218) 
0

>  <Molecular Weight>  (218) 
372.47

>  <Ligand Efficiency BEI>  (218) 
nan

>  <Ligand Efficiency LE>  (218) 
nan

>  <Ligand Efficiency LLE>  (218) 
nan

>  <Ligand Efficiency SEI>  (218) 
nan

>  <ALogP>  (218) 
4.13

>  <Assay Organism>  (218) 
nan

>  <Assay Tissue ChEMBL ID>  (218) 
nan

>  <Assay Tissue Name>  (218) 
nan

>  <Assay Cell Type>  (218) 
nan

>  <Assay Subcellular Fraction>  (218) 
nan

>  <Organism Tax ID>  (218) 
9606

>  <BAO Format ID>  (218) 
BAO_0000019

>  <Published Type>  (218) 
nan

>  <Published Relation>  (218) 
nan

>  <Published Value>  (218) 
nan

>  <Published Units>  (218) 
nan

>  <Canonical Smiles>  (218) 
Cc1n[nH]c2ccc(cc12)c3cncc(OCC(CN)Cc4ccccc4)c3

>  <Data Validity Comment>  (218) 
nan

>  <Document Journal>  (218) 
nan

>  <Document Year>  (218) 
nan

>  <SRC ID>  (218) 
7

>  <UO Units>  (218) 
UO_0000065

>  <Potential Duplicate>  (218) 
False

>  <Class>  (218) 
0

$$$$

     RDKit          2D

 30 34  0  0  0  0  0  0  0  0999 V2000
   -8.2500   -6.4952    0.0000 N   0  0  0  0  0  0  0  0  0  0  0  0
   -7.5000   -5.1962    0.0000 C   0  0  0  0  0  0  0  0  0  0  0  0
   -6.0000   -5.1962    0.0000 C   0  0  0  0  0  0  0  0  0  0  0  0
   -5.2500   -6.4952    0.0000 O   0  0  0  0  0  0  0  0  0  0  0  0
   -3.7500   -6.4952    0.0000 C   0  0  0  0  0  0  0  0  0  0  0  0
   -3.0000   -7.7942    0.0000 C   0  0  0  0  0  0  0  0  0  0  0  0
   -1.5000   -7.7942    0.0000 N   0  0  0  0  0  0  0  0  0  0  0  0
   -0.7500   -6.4952    0.0000 C   0  0  0  0  0  0  0  0  0  0  0  0
   -1.5000   -5.1962    0.0000 C   0  0  0  0  0  0  0  0  0  0  0  0
   -3.0000   -5.1962    0.0000 C   0  0  0  0  0  0  0  0  0  0  0  0
   -0.7500   -3.8971    0.0000 C   0  0  0  0  0  0  0  0  0  0  0  0
    0.7500   -3.8971    0.0000 C   0  0  0  0  0  0  0  0  0  0  0  0
    1.5000   -2.5981    0.0000 C   0  0  0  0  0  0  0  0  0  0  0  0
    0.7500   -1.2990    0.0000 C   0  0  0  0  0  0  0  0  0  0  0  0
    1.5000    0.0000    0.0000 C   0  0  0  0  0  0  0  0  0  0  0  0
    0.7500    1.2990    0.0000 N   0  0  0  0  0  0  0  0  0  0  0  0
   -0.7500    1.2990    0.0000 C   0  0  0  0  0  0  0  0  0  0  0  0
   -1.5000    0.0000    0.0000 C   0  0  0  0  0  0  0  0  0  0  0  0
   -0.7500   -1.2990    0.0000 C   0  0  0  0  0  0  0  0  0  0  0  0
   -1.5000   -2.5981    0.0000 C   0  0  0  0  0  0  0  0  0  0  0  0
   -8.2500   -3.8971    0.0000 C   0  0  0  0  0  0  0  0  0  0  0  0
   -9.7500   -3.8971    0.0000 C   0  0  0  0  0  0  0  0  0  0  0  0
  -10.6317   -5.1106    0.0000 C   0  0  0  0  0  0  0  0  0  0  0  0
  -12.0583   -4.6471    0.0000 N   0  0  0  0  0  0  0  0  0  0  0  0
  -12.0583   -3.1471    0.0000 C   0  0  0  0  0  0  0  0  0  0  0  0
  -13.1730   -2.1434    0.0000 C   0  0  0  0  0  0  0  0  0  0  0  0
  -12.8611   -0.6762    0.0000 C   0  0  0  0  0  0  0  0  0  0  0  0
  -11.4345   -0.2127    0.0000 C   0  0  0  0  0  0  0  0  0  0  0  0
  -10.3198   -1.2164    0.0000 C   0  0  0  0  0  0  0  0  0  0  0  0
  -10.6317   -2.6836    0.0000 C   0  0  0  0  0  0  0  0  0  0  0  0
  1  2  1  0
  2  3  1  0
  3  4  1  0
  4  5  1  0
  5  6  2  0
  6  7  1  0
  7  8  2  0
  8  9  1  0
  9 10  2  0
  9 11  1  0
 11 12  2  0
 12 13  1  0
 13 14  2  0
 14 15  1  0
 15 16  2  0
 16 17  1  0
 17 18  2  0
 18 19  1  0
 19 20  2  0
  2 21  1  0
 21 22  1  0
 22 23  2  0
 23 24  1  0
 24 25  1  0
 25 26  2  0
 26 27  1  0
 27 28  2  0
 28 29  1  0
 29 30  2  0
 10  5  1  0
 20 11  1  0
 19 14  1  0
 30 22  1  0
 30 25  1  0
M  END
>  <Molecule>  (219) 
CHEMBL1981133

>  <Standard Type>  (219) 
Ki

>  <Standard Relation>  (219) 
>

>  <Standard Value>  (219) 
5011.87

>  <Standard Units>  (219) 
nM

>  <pChEMBL Value>  (219) 
nan

>  <Comment>  (219) 
inactive

>  <Compound Key>  (219) 
SID103904486

>  <Assay>  (219) 
CHEMBL1963742

>  <Assay Description>  (219) 
PUBCHEM_BIOASSAY: Navigating the Kinome. (Class of assay: other) Panel member name: JAK3

>  <BAO Format>  (219) 
assay format

>  <Target>  (219) 
CHEMBL2148

>  <Target Pref. Name>  (219) 
Tyrosine-protein kinase JAK3

>  <Target Organism>  (219) 
Homo sapiens

>  <Target Type>  (219) 
SINGLE PROTEIN

>  <Document>  (219) 
CHEMBL1201862

>  <Source>  (219) 
PubChem BioAssays

>  <Max Phase>  (219) 
0

>  <#Ro5 Violations>  (219) 
0

>  <Molecular Weight>  (219) 
394.48

>  <Ligand Efficiency BEI>  (219) 
nan

>  <Ligand Efficiency LE>  (219) 
nan

>  <Ligand Efficiency LLE>  (219) 
nan

>  <Ligand Efficiency SEI>  (219) 
nan

>  <ALogP>  (219) 
4.73

>  <Assay Organism>  (219) 
nan

>  <Assay Tissue ChEMBL ID>  (219) 
nan

>  <Assay Tissue Name>  (219) 
nan

>  <Assay Cell Type>  (219) 
nan

>  <Assay Subcellular Fraction>  (219) 
nan

>  <Organism Tax ID>  (219) 
9606

>  <BAO Format ID>  (219) 
BAO_0000019

>  <Published Type>  (219) 
nan

>  <Published Relation>  (219) 
nan

>  <Published Value>  (219) 
nan

>  <Published Units>  (219) 
nan

>  <Canonical Smiles>  (219) 
NC(COc1cncc(c1)c2ccc3cnccc3c2)Cc4c[nH]c5ccccc45

>  <Data Validity Comment>  (219) 
nan

>  <Document Journal>  (219) 
nan

>  <Document Year>  (219) 
nan

>  <SRC ID>  (219) 
7

>  <UO Units>  (219) 
UO_0000065

>  <Potential Duplicate>  (219) 
False

>  <Class>  (219) 
0

$$$$

     RDKit          2D

 24 26  0  0  0  0  0  0  0  0999 V2000
   -0.0000  -15.5885    0.0000 C   0  0  0  0  0  0  0  0  0  0  0  0
   -0.7500  -14.2894    0.0000 S   0  0  0  0  0  0  0  0  0  0  0  0
    0.5490  -13.5394    0.0000 O   0  0  0  0  0  0  0  0  0  0  0  0
   -2.0490  -15.0394    0.0000 O   0  0  0  0  0  0  0  0  0  0  0  0
   -1.5000  -12.9904    0.0000 N   0  0  0  0  0  0  0  0  0  0  0  0
   -0.7500  -11.6913    0.0000 C   0  0  0  0  0  0  0  0  0  0  0  0
   -1.5000  -10.3923    0.0000 C   0  0  0  0  0  0  0  0  0  0  0  0
   -0.7500   -9.0933    0.0000 O   0  0  0  0  0  0  0  0  0  0  0  0
   -1.5000   -7.7942    0.0000 C   0  0  0  0  0  0  0  0  0  0  0  0
   -3.0000   -7.7942    0.0000 C   0  0  0  0  0  0  0  0  0  0  0  0
   -3.7500   -6.4952    0.0000 N   0  0  0  0  0  0  0  0  0  0  0  0
   -3.0000   -5.1962    0.0000 C   0  0  0  0  0  0  0  0  0  0  0  0
   -1.5000   -5.1962    0.0000 C   0  0  0  0  0  0  0  0  0  0  0  0
   -0.7500   -6.4952    0.0000 C   0  0  0  0  0  0  0  0  0  0  0  0
   -0.7500   -3.8971    0.0000 C   0  0  0  0  0  0  0  0  0  0  0  0
    0.7500   -3.8971    0.0000 C   0  0  0  0  0  0  0  0  0  0  0  0
    1.5000   -2.5981    0.0000 C   0  0  0  0  0  0  0  0  0  0  0  0
    0.7500   -1.2990    0.0000 C   0  0  0  0  0  0  0  0  0  0  0  0
    1.5000    0.0000    0.0000 C   0  0  0  0  0  0  0  0  0  0  0  0
    0.7500    1.2990    0.0000 N   0  0  0  0  0  0  0  0  0  0  0  0
   -0.7500    1.2990    0.0000 C   0  0  0  0  0  0  0  0  0  0  0  0
   -1.5000    0.0000    0.0000 C   0  0  0  0  0  0  0  0  0  0  0  0
   -0.7500   -1.2990    0.0000 C   0  0  0  0  0  0  0  0  0  0  0  0
   -1.5000   -2.5981    0.0000 C   0  0  0  0  0  0  0  0  0  0  0  0
  1  2  1  0
  2  3  2  0
  2  4  2  0
  2  5  1  0
  5  6  1  0
  6  7  1  0
  7  8  1  0
  8  9  1  0
  9 10  2  0
 10 11  1  0
 11 12  2  0
 12 13  1  0
 13 14  2  0
 13 15  1  0
 15 16  2  0
 16 17  1  0
 17 18  2  0
 18 19  1  0
 19 20  2  0
 20 21  1  0
 21 22  2  0
 22 23  1  0
 23 24  2  0
 14  9  1  0
 24 15  1  0
 23 18  1  0
M  END
>  <Molecule>  (220) 
CHEMBL1964804

>  <Standard Type>  (220) 
Ki

>  <Standard Relation>  (220) 
>

>  <Standard Value>  (220) 
1584.89

>  <Standard Units>  (220) 
nM

>  <pChEMBL Value>  (220) 
nan

>  <Comment>  (220) 
inactive

>  <Compound Key>  (220) 
SID103904475

>  <Assay>  (220) 
CHEMBL1963742

>  <Assay Description>  (220) 
PUBCHEM_BIOASSAY: Navigating the Kinome. (Class of assay: other) Panel member name: JAK3

>  <BAO Format>  (220) 
assay format

>  <Target>  (220) 
CHEMBL2148

>  <Target Pref. Name>  (220) 
Tyrosine-protein kinase JAK3

>  <Target Organism>  (220) 
Homo sapiens

>  <Target Type>  (220) 
SINGLE PROTEIN

>  <Document>  (220) 
CHEMBL1201862

>  <Source>  (220) 
PubChem BioAssays

>  <Max Phase>  (220) 
0

>  <#Ro5 Violations>  (220) 
0

>  <Molecular Weight>  (220) 
343.41

>  <Ligand Efficiency BEI>  (220) 
nan

>  <Ligand Efficiency LE>  (220) 
nan

>  <Ligand Efficiency LLE>  (220) 
nan

>  <Ligand Efficiency SEI>  (220) 
nan

>  <ALogP>  (220) 
2.22

>  <Assay Organism>  (220) 
nan

>  <Assay Tissue ChEMBL ID>  (220) 
nan

>  <Assay Tissue Name>  (220) 
nan

>  <Assay Cell Type>  (220) 
nan

>  <Assay Subcellular Fraction>  (220) 
nan

>  <Organism Tax ID>  (220) 
9606

>  <BAO Format ID>  (220) 
BAO_0000019

>  <Published Type>  (220) 
nan

>  <Published Relation>  (220) 
nan

>  <Published Value>  (220) 
nan

>  <Published Units>  (220) 
nan

>  <Canonical Smiles>  (220) 
CS(=O)(=O)NCCOc1cncc(c1)c2ccc3cnccc3c2

>  <Data Validity Comment>  (220) 
nan

>  <Document Journal>  (220) 
nan

>  <Document Year>  (220) 
nan

>  <SRC ID>  (220) 
7

>  <UO Units>  (220) 
UO_0000065

>  <Potential Duplicate>  (220) 
False

>  <Class>  (220) 
0

$$$$

     RDKit          2D

 28 31  0  0  0  0  0  0  0  0999 V2000
   -7.2781    6.2310    0.0000 C   0  0  0  0  0  0  0  0  0  0  0  0
   -7.5900    4.7638    0.0000 S   0  0  0  0  0  0  0  0  0  0  0  0
   -6.1227    4.4519    0.0000 O   0  0  0  0  0  0  0  0  0  0  0  0
   -9.0572    5.0756    0.0000 O   0  0  0  0  0  0  0  0  0  0  0  0
   -7.9018    3.2966    0.0000 N   0  0  0  0  0  0  0  0  0  0  0  0
   -6.7871    2.2929    0.0000 C   0  0  0  0  0  0  0  0  0  0  0  0
   -5.3605    2.7564    0.0000 C   0  0  0  0  0  0  0  0  0  0  0  0
   -4.2458    1.7527    0.0000 C   0  0  0  0  0  0  0  0  0  0  0  0
   -4.5577    0.2855    0.0000 C   0  0  0  0  0  0  0  0  0  0  0  0
   -5.9843   -0.1781    0.0000 C   0  0  0  0  0  0  0  0  0  0  0  0
   -7.0990    0.8256    0.0000 C   0  0  0  0  0  0  0  0  0  0  0  0
   -6.2961   -1.6453    0.0000 N   0  0  0  0  0  0  0  0  0  0  0  0
   -5.1814   -2.6490    0.0000 C   0  0  0  0  0  0  0  0  0  0  0  0
   -5.4933   -4.1162    0.0000 N   0  0  0  0  0  0  0  0  0  0  0  0
   -4.3786   -5.1199    0.0000 C   0  0  0  0  0  0  0  0  0  0  0  0
   -4.6904   -6.5871    0.0000 Cl  0  0  0  0  0  0  0  0  0  0  0  0
   -2.9520   -4.6564    0.0000 C   0  0  0  0  0  0  0  0  0  0  0  0
   -2.6401   -3.1891    0.0000 C   0  0  0  0  0  0  0  0  0  0  0  0
   -3.7548   -2.1855    0.0000 N   0  0  0  0  0  0  0  0  0  0  0  0
   -1.2135   -2.7256    0.0000 C   0  0  0  0  0  0  0  0  0  0  0  0
    0.0000   -3.6073    0.0000 C   0  0  0  0  0  0  0  0  0  0  0  0
    1.2135   -2.7256    0.0000 N   0  0  0  0  0  0  0  0  0  0  0  0
    0.7500   -1.2990    0.0000 C   0  0  0  0  0  0  0  0  0  0  0  0
    1.5000    0.0000    0.0000 N   0  0  0  0  0  0  0  0  0  0  0  0
    0.7500    1.2990    0.0000 C   0  0  0  0  0  0  0  0  0  0  0  0
   -0.7500    1.2990    0.0000 C   0  0  0  0  0  0  0  0  0  0  0  0
   -1.5000    0.0000    0.0000 C   0  0  0  0  0  0  0  0  0  0  0  0
   -0.7500   -1.2990    0.0000 C   0  0  0  0  0  0  0  0  0  0  0  0
  1  2  1  0
  2  3  2  0
  2  4  2  0
  2  5  1  0
  5  6  1  0
  6  7  1  0
  7  8  1  0
  8  9  1  0
  9 10  1  0
 10 11  1  0
 10 12  1  0
 12 13  1  0
 13 14  2  0
 14 15  1  0
 15 16  1  0
 15 17  2  0
 17 18  1  0
 18 19  2  0
 18 20  1  0
 20 21  2  0
 21 22  1  0
 22 23  1  0
 23 24  2  0
 24 25  1  0
 25 26  2  0
 26 27  1  0
 27 28  2  0
 11  6  1  0
 19 13  1  0
 28 20  1  0
 28 23  1  0
M  END
>  <Molecule>  (221) 
CHEMBL1987948

>  <Standard Type>  (221) 
Ki

>  <Standard Relation>  (221) 
=

>  <Standard Value>  (221) 
2511.89

>  <Standard Units>  (221) 
nM

>  <pChEMBL Value>  (221) 
5.6

>  <Comment>  (221) 
active

>  <Compound Key>  (221) 
SID103904224

>  <Assay>  (221) 
CHEMBL1963742

>  <Assay Description>  (221) 
PUBCHEM_BIOASSAY: Navigating the Kinome. (Class of assay: other) Panel member name: JAK3

>  <BAO Format>  (221) 
assay format

>  <Target>  (221) 
CHEMBL2148

>  <Target Pref. Name>  (221) 
Tyrosine-protein kinase JAK3

>  <Target Organism>  (221) 
Homo sapiens

>  <Target Type>  (221) 
SINGLE PROTEIN

>  <Document>  (221) 
CHEMBL1201862

>  <Source>  (221) 
PubChem BioAssays

>  <Max Phase>  (221) 
0

>  <#Ro5 Violations>  (221) 
0

>  <Molecular Weight>  (221) 
420.93

>  <Ligand Efficiency BEI>  (221) 
nan

>  <Ligand Efficiency LE>  (221) 
nan

>  <Ligand Efficiency LLE>  (221) 
nan

>  <Ligand Efficiency SEI>  (221) 
nan

>  <ALogP>  (221) 
2.95

>  <Assay Organism>  (221) 
nan

>  <Assay Tissue ChEMBL ID>  (221) 
nan

>  <Assay Tissue Name>  (221) 
nan

>  <Assay Cell Type>  (221) 
nan

>  <Assay Subcellular Fraction>  (221) 
nan

>  <Organism Tax ID>  (221) 
9606

>  <BAO Format ID>  (221) 
BAO_0000019

>  <Published Type>  (221) 
nan

>  <Published Relation>  (221) 
nan

>  <Published Value>  (221) 
nan

>  <Published Units>  (221) 
nan

>  <Canonical Smiles>  (221) 
CS(=O)(=O)NC1CCCC(C1)Nc2nc(Cl)cc(n2)c3c[nH]c4ncccc34

>  <Data Validity Comment>  (221) 
nan

>  <Document Journal>  (221) 
nan

>  <Document Year>  (221) 
nan

>  <SRC ID>  (221) 
7

>  <UO Units>  (221) 
UO_0000065

>  <Potential Duplicate>  (221) 
False

>  <Class>  (221) 
1

$$$$

     RDKit          2D

 27 30  0  0  0  0  0  0  0  0999 V2000
   -2.6401   -3.1891    0.0000 C   0  0  0  0  0  0  0  0  0  0  0  0
   -1.2135   -2.7256    0.0000 C   0  0  0  0  0  0  0  0  0  0  0  0
   -0.0000   -3.6073    0.0000 N   0  0  0  0  0  0  0  0  0  0  0  0
    1.2135   -2.7256    0.0000 N   0  0  0  0  0  0  0  0  0  0  0  0
    0.7500   -1.2990    0.0000 C   0  0  0  0  0  0  0  0  0  0  0  0
    1.5000    0.0000    0.0000 C   0  0  0  0  0  0  0  0  0  0  0  0
    0.7500    1.2990    0.0000 C   0  0  0  0  0  0  0  0  0  0  0  0
   -0.7500    1.2990    0.0000 C   0  0  0  0  0  0  0  0  0  0  0  0
   -1.5000    0.0000    0.0000 C   0  0  0  0  0  0  0  0  0  0  0  0
   -0.7500   -1.2990    0.0000 C   0  0  0  0  0  0  0  0  0  0  0  0
   -1.5000    2.5981    0.0000 C   0  0  0  0  0  0  0  0  0  0  0  0
   -0.7500    3.8971    0.0000 C   0  0  0  0  0  0  0  0  0  0  0  0
   -1.5000    5.1962    0.0000 N   0  0  0  0  0  0  0  0  0  0  0  0
   -3.0000    5.1962    0.0000 C   0  0  0  0  0  0  0  0  0  0  0  0
   -3.7500    3.8971    0.0000 C   0  0  0  0  0  0  0  0  0  0  0  0
   -5.2500    3.8971    0.0000 O   0  0  0  0  0  0  0  0  0  0  0  0
   -6.0000    5.1962    0.0000 C   0  0  0  0  0  0  0  0  0  0  0  0
   -7.5000    5.1962    0.0000 C   0  0  0  0  0  0  0  0  0  0  0  0
   -8.2500    3.8971    0.0000 N   0  0  0  0  0  0  0  0  0  0  0  0
   -8.2500    6.4952    0.0000 C   0  0  0  0  0  0  0  0  0  0  0  0
   -9.7500    6.4952    0.0000 C   0  0  0  0  0  0  0  0  0  0  0  0
  -10.5000    7.7942    0.0000 C   0  0  0  0  0  0  0  0  0  0  0  0
  -12.0000    7.7942    0.0000 C   0  0  0  0  0  0  0  0  0  0  0  0
  -12.7500    6.4952    0.0000 C   0  0  0  0  0  0  0  0  0  0  0  0
  -12.0000    5.1962    0.0000 C   0  0  0  0  0  0  0  0  0  0  0  0
  -10.5000    5.1962    0.0000 C   0  0  0  0  0  0  0  0  0  0  0  0
   -3.0000    2.5981    0.0000 C   0  0  0  0  0  0  0  0  0  0  0  0
  1  2  1  0
  2  3  2  0
  3  4  1  0
  4  5  1  0
  5  6  2  0
  6  7  1  0
  7  8  2  0
  8  9  1  0
  9 10  2  0
  8 11  1  0
 11 12  2  0
 12 13  1  0
 13 14  2  0
 14 15  1  0
 15 16  1  0
 16 17  1  0
 17 18  1  0
 18 19  1  0
 18 20  1  0
 20 21  1  0
 21 22  2  0
 22 23  1  0
 23 24  2  0
 24 25  1  0
 25 26  2  0
 15 27  2  0
 10  2  1  0
 10  5  1  0
 27 11  1  0
 26 21  1  0
M  END
>  <Molecule>  (222) 
CHEMBL2002726

>  <Standard Type>  (222) 
Ki

>  <Standard Relation>  (222) 
>

>  <Standard Value>  (222) 
1584.89

>  <Standard Units>  (222) 
nM

>  <pChEMBL Value>  (222) 
nan

>  <Comment>  (222) 
inactive

>  <Compound Key>  (222) 
SID103904468

>  <Assay>  (222) 
CHEMBL1963742

>  <Assay Description>  (222) 
PUBCHEM_BIOASSAY: Navigating the Kinome. (Class of assay: other) Panel member name: JAK3

>  <BAO Format>  (222) 
assay format

>  <Target>  (222) 
CHEMBL2148

>  <Target Pref. Name>  (222) 
Tyrosine-protein kinase JAK3

>  <Target Organism>  (222) 
Homo sapiens

>  <Target Type>  (222) 
SINGLE PROTEIN

>  <Document>  (222) 
CHEMBL1201862

>  <Source>  (222) 
PubChem BioAssays

>  <Max Phase>  (222) 
0

>  <#Ro5 Violations>  (222) 
0

>  <Molecular Weight>  (222) 
358.45

>  <Ligand Efficiency BEI>  (222) 
nan

>  <Ligand Efficiency LE>  (222) 
nan

>  <Ligand Efficiency LLE>  (222) 
nan

>  <Ligand Efficiency SEI>  (222) 
nan

>  <ALogP>  (222) 
3.88

>  <Assay Organism>  (222) 
nan

>  <Assay Tissue ChEMBL ID>  (222) 
nan

>  <Assay Tissue Name>  (222) 
nan

>  <Assay Cell Type>  (222) 
nan

>  <Assay Subcellular Fraction>  (222) 
nan

>  <Organism Tax ID>  (222) 
9606

>  <BAO Format ID>  (222) 
BAO_0000019

>  <Published Type>  (222) 
nan

>  <Published Relation>  (222) 
nan

>  <Published Value>  (222) 
nan

>  <Published Units>  (222) 
nan

>  <Canonical Smiles>  (222) 
Cc1n[nH]c2ccc(cc12)c3cncc(OCC(N)Cc4ccccc4)c3

>  <Data Validity Comment>  (222) 
nan

>  <Document Journal>  (222) 
nan

>  <Document Year>  (222) 
nan

>  <SRC ID>  (222) 
7

>  <UO Units>  (222) 
UO_0000065

>  <Potential Duplicate>  (222) 
False

>  <Class>  (222) 
0

$$$$

     RDKit          2D

 26 29  0  0  0  0  0  0  0  0999 V2000
    3.7500   -1.2990    0.0000 C   0  0  0  0  0  0  0  0  0  0  0  0
    3.0000    0.0000    0.0000 S   0  0  0  0  0  0  0  0  0  0  0  0
    1.5000    0.0000    0.0000 C   0  0  0  0  0  0  0  0  0  0  0  0
    0.7500   -1.2990    0.0000 C   0  0  0  0  0  0  0  0  0  0  0  0
   -0.7500   -1.2990    0.0000 C   0  0  0  0  0  0  0  0  0  0  0  0
   -1.5000    0.0000    0.0000 C   0  0  0  0  0  0  0  0  0  0  0  0
   -0.7500    1.2990    0.0000 C   0  0  0  0  0  0  0  0  0  0  0  0
    0.7500    1.2990    0.0000 C   0  0  0  0  0  0  0  0  0  0  0  0
   -3.0000    0.0000    0.0000 C   0  0  0  0  0  0  0  0  0  0  0  0
   -3.8817   -1.2135    0.0000 N   0  0  0  0  0  0  0  0  0  0  0  0
   -5.3083   -0.7500    0.0000 C   0  0  0  0  0  0  0  0  0  0  0  0
   -6.5218   -1.6317    0.0000 C   0  0  0  0  0  0  0  0  0  0  0  0
   -7.8921   -1.0216    0.0000 C   0  0  0  0  0  0  0  0  0  0  0  0
   -9.1056   -1.9033    0.0000 C   0  0  0  0  0  0  0  0  0  0  0  0
   -8.9488   -3.3950    0.0000 C   0  0  0  0  0  0  0  0  0  0  0  0
  -10.1624   -4.2767    0.0000 F   0  0  0  0  0  0  0  0  0  0  0  0
   -7.5785   -4.0051    0.0000 C   0  0  0  0  0  0  0  0  0  0  0  0
   -6.3650   -3.1235    0.0000 C   0  0  0  0  0  0  0  0  0  0  0  0
   -5.3083    0.7500    0.0000 C   0  0  0  0  0  0  0  0  0  0  0  0
   -3.8817    1.2135    0.0000 N   0  0  0  0  0  0  0  0  0  0  0  0
   -6.5218    1.6317    0.0000 C   0  0  0  0  0  0  0  0  0  0  0  0
   -6.3650    3.1235    0.0000 C   0  0  0  0  0  0  0  0  0  0  0  0
   -7.5785    4.0051    0.0000 C   0  0  0  0  0  0  0  0  0  0  0  0
   -8.9488    3.3950    0.0000 N   0  0  0  0  0  0  0  0  0  0  0  0
   -9.1056    1.9033    0.0000 C   0  0  0  0  0  0  0  0  0  0  0  0
   -7.8921    1.0216    0.0000 C   0  0  0  0  0  0  0  0  0  0  0  0
  1  2  1  0
  2  3  1  0
  3  4  2  0
  4  5  1  0
  5  6  2  0
  6  7  1  0
  7  8  2  0
  6  9  1  0
  9 10  2  0
 10 11  1  0
 11 12  1  0
 12 13  2  0
 13 14  1  0
 14 15  2  0
 15 16  1  0
 15 17  1  0
 17 18  2  0
 11 19  2  0
 19 20  1  0
 19 21  1  0
 21 22  2  0
 22 23  1  0
 23 24  2  0
 24 25  1  0
 25 26  2  0
  8  3  1  0
 20  9  1  0
 18 12  1  0
 26 21  1  0
M  END
>  <Molecule>  (223) 
CHEMBL17370

>  <Standard Type>  (223) 
Ki

>  <Standard Relation>  (223) 
>

>  <Standard Value>  (223) 
1584.89

>  <Standard Units>  (223) 
nM

>  <pChEMBL Value>  (223) 
nan

>  <Comment>  (223) 
inactive

>  <Compound Key>  (223) 
SID103905410

>  <Assay>  (223) 
CHEMBL1963742

>  <Assay Description>  (223) 
PUBCHEM_BIOASSAY: Navigating the Kinome. (Class of assay: other) Panel member name: JAK3

>  <BAO Format>  (223) 
assay format

>  <Target>  (223) 
CHEMBL2148

>  <Target Pref. Name>  (223) 
Tyrosine-protein kinase JAK3

>  <Target Organism>  (223) 
Homo sapiens

>  <Target Type>  (223) 
SINGLE PROTEIN

>  <Document>  (223) 
CHEMBL1201862

>  <Source>  (223) 
PubChem BioAssays

>  <Max Phase>  (223) 
0

>  <#Ro5 Violations>  (223) 
1

>  <Molecular Weight>  (223) 
361.45

>  <Ligand Efficiency BEI>  (223) 
nan

>  <Ligand Efficiency LE>  (223) 
nan

>  <Ligand Efficiency LLE>  (223) 
nan

>  <Ligand Efficiency SEI>  (223) 
nan

>  <ALogP>  (223) 
5.67

>  <Assay Organism>  (223) 
nan

>  <Assay Tissue ChEMBL ID>  (223) 
nan

>  <Assay Tissue Name>  (223) 
nan

>  <Assay Cell Type>  (223) 
nan

>  <Assay Subcellular Fraction>  (223) 
nan

>  <Organism Tax ID>  (223) 
9606

>  <BAO Format ID>  (223) 
BAO_0000019

>  <Published Type>  (223) 
nan

>  <Published Relation>  (223) 
nan

>  <Published Value>  (223) 
nan

>  <Published Units>  (223) 
nan

>  <Canonical Smiles>  (223) 
CSc1ccc(cc1)c2nc(c3ccc(F)cc3)c([nH]2)c4ccncc4

>  <Data Validity Comment>  (223) 
nan

>  <Document Journal>  (223) 
nan

>  <Document Year>  (223) 
nan

>  <SRC ID>  (223) 
7

>  <UO Units>  (223) 
UO_0000065

>  <Potential Duplicate>  (223) 
False

>  <Class>  (223) 
0

$$$$

     RDKit          2D

 27 30  0  0  0  0  0  0  0  0999 V2000
    0.4775   -7.0740    0.0000 C   0  0  0  0  0  0  0  0  0  0  0  0
    1.8478   -6.4639    0.0000 N   0  0  0  0  0  0  0  0  0  0  0  0
    2.0046   -4.9721    0.0000 C   0  0  0  0  0  0  0  0  0  0  0  0
    3.3037   -4.2221    0.0000 N   0  0  0  0  0  0  0  0  0  0  0  0
    2.9918   -2.7549    0.0000 C   0  0  0  0  0  0  0  0  0  0  0  0
    3.9955   -1.6402    0.0000 C   0  0  0  0  0  0  0  0  0  0  0  0
    1.5000   -2.5981    0.0000 C   0  0  0  0  0  0  0  0  0  0  0  0
    0.8899   -3.9684    0.0000 S   0  0  0  0  0  0  0  0  0  0  0  0
    0.7500   -1.2990    0.0000 C   0  0  0  0  0  0  0  0  0  0  0  0
    1.5000    0.0000    0.0000 C   0  0  0  0  0  0  0  0  0  0  0  0
    0.7500    1.2990    0.0000 C   0  0  0  0  0  0  0  0  0  0  0  0
   -0.7500    1.2990    0.0000 N   0  0  0  0  0  0  0  0  0  0  0  0
   -1.5000    0.0000    0.0000 C   0  0  0  0  0  0  0  0  0  0  0  0
   -3.0000    0.0000    0.0000 N   0  0  0  0  0  0  0  0  0  0  0  0
   -3.7500    1.2990    0.0000 C   0  0  0  0  0  0  0  0  0  0  0  0
   -3.0000    2.5981    0.0000 C   0  0  0  0  0  0  0  0  0  0  0  0
   -3.7500    3.8971    0.0000 C   0  0  0  0  0  0  0  0  0  0  0  0
   -5.2500    3.8971    0.0000 C   0  0  0  0  0  0  0  0  0  0  0  0
   -6.0000    2.5981    0.0000 C   0  0  0  0  0  0  0  0  0  0  0  0
   -5.2500    1.2990    0.0000 C   0  0  0  0  0  0  0  0  0  0  0  0
   -6.0000    5.1962    0.0000 N   0  0  0  0  0  0  0  0  0  0  0  0
   -5.2500    6.4952    0.0000 C   0  0  0  0  0  0  0  0  0  0  0  0
   -6.0000    7.7942    0.0000 C   0  0  0  0  0  0  0  0  0  0  0  0
   -7.5000    7.7942    0.0000 N   0  0  0  0  0  0  0  0  0  0  0  0
   -8.2500    6.4952    0.0000 C   0  0  0  0  0  0  0  0  0  0  0  0
   -7.5000    5.1962    0.0000 C   0  0  0  0  0  0  0  0  0  0  0  0
   -0.7500   -1.2990    0.0000 N   0  0  0  0  0  0  0  0  0  0  0  0
  1  2  1  0
  2  3  1  0
  3  4  2  0
  4  5  1  0
  5  6  1  0
  5  7  2  0
  7  8  1  0
  7  9  1  0
  9 10  2  0
 10 11  1  0
 11 12  2  0
 12 13  1  0
 13 14  1  0
 14 15  1  0
 15 16  2  0
 16 17  1  0
 17 18  2  0
 18 19  1  0
 19 20  2  0
 18 21  1  0
 21 22  1  0
 22 23  1  0
 23 24  1  0
 24 25  1  0
 25 26  1  0
 13 27  2  0
  8  3  1  0
 27  9  1  0
 20 15  1  0
 26 21  1  0
M  END
>  <Molecule>  (224) 
CHEMBL1999484

>  <Standard Type>  (224) 
Ki

>  <Standard Relation>  (224) 
=

>  <Standard Value>  (224) 
316.23

>  <Standard Units>  (224) 
nM

>  <pChEMBL Value>  (224) 
6.5

>  <Comment>  (224) 
active

>  <Compound Key>  (224) 
SID103904405

>  <Assay>  (224) 
CHEMBL1963742

>  <Assay Description>  (224) 
PUBCHEM_BIOASSAY: Navigating the Kinome. (Class of assay: other) Panel member name: JAK3

>  <BAO Format>  (224) 
assay format

>  <Target>  (224) 
CHEMBL2148

>  <Target Pref. Name>  (224) 
Tyrosine-protein kinase JAK3

>  <Target Organism>  (224) 
Homo sapiens

>  <Target Type>  (224) 
SINGLE PROTEIN

>  <Document>  (224) 
CHEMBL1201862

>  <Source>  (224) 
PubChem BioAssays

>  <Max Phase>  (224) 
0

>  <#Ro5 Violations>  (224) 
0

>  <Molecular Weight>  (224) 
381.51

>  <Ligand Efficiency BEI>  (224) 
nan

>  <Ligand Efficiency LE>  (224) 
nan

>  <Ligand Efficiency LLE>  (224) 
nan

>  <Ligand Efficiency SEI>  (224) 
nan

>  <ALogP>  (224) 
3.1

>  <Assay Organism>  (224) 
nan

>  <Assay Tissue ChEMBL ID>  (224) 
nan

>  <Assay Tissue Name>  (224) 
nan

>  <Assay Cell Type>  (224) 
nan

>  <Assay Subcellular Fraction>  (224) 
nan

>  <Organism Tax ID>  (224) 
9606

>  <BAO Format ID>  (224) 
BAO_0000019

>  <Published Type>  (224) 
nan

>  <Published Relation>  (224) 
nan

>  <Published Value>  (224) 
nan

>  <Published Units>  (224) 
nan

>  <Canonical Smiles>  (224) 
CNc1nc(C)c(s1)c2ccnc(Nc3ccc(cc3)N4CCNCC4)n2

>  <Data Validity Comment>  (224) 
nan

>  <Document Journal>  (224) 
nan

>  <Document Year>  (224) 
nan

>  <SRC ID>  (224) 
7

>  <UO Units>  (224) 
UO_0000065

>  <Potential Duplicate>  (224) 
False

>  <Class>  (224) 
1

$$$$

     RDKit          2D

 22 24  0  0  0  0  0  0  0  0999 V2000
    3.0000    0.0000    0.0000 C   0  0  0  0  0  0  0  0  0  0  0  0
    1.5000    0.0000    0.0000 C   0  0  0  0  0  0  0  0  0  0  0  0
    0.7500   -1.2990    0.0000 C   0  0  0  0  0  0  0  0  0  0  0  0
   -0.7500   -1.2990    0.0000 C   0  0  0  0  0  0  0  0  0  0  0  0
   -1.5000    0.0000    0.0000 C   0  0  0  0  0  0  0  0  0  0  0  0
   -3.0000    0.0000    0.0000 N   0  0  0  0  0  0  0  0  0  0  0  0
   -3.7500    1.2990    0.0000 C   0  0  0  0  0  0  0  0  0  0  0  0
   -5.2500    1.2990    0.0000 C   0  0  0  0  0  0  0  0  0  0  0  0
   -6.0000    2.5981    0.0000 C   0  0  0  0  0  0  0  0  0  0  0  0
   -7.5000    2.5981    0.0000 C   0  0  0  0  0  0  0  0  0  0  0  0
   -8.2500    1.2990    0.0000 C   0  0  0  0  0  0  0  0  0  0  0  0
   -7.5000    0.0000    0.0000 N   0  0  0  0  0  0  0  0  0  0  0  0
   -6.0000    0.0000    0.0000 C   0  0  0  0  0  0  0  0  0  0  0  0
   -9.7500    1.2990    0.0000 C   0  0  0  0  0  0  0  0  0  0  0  0
  -10.5000    2.5981    0.0000 C   0  0  0  0  0  0  0  0  0  0  0  0
  -12.0000    2.5981    0.0000 C   0  0  0  0  0  0  0  0  0  0  0  0
  -12.7500    1.2990    0.0000 C   0  0  0  0  0  0  0  0  0  0  0  0
  -14.2500    1.2990    0.0000 F   0  0  0  0  0  0  0  0  0  0  0  0
  -12.0000    0.0000    0.0000 C   0  0  0  0  0  0  0  0  0  0  0  0
  -10.5000    0.0000    0.0000 C   0  0  0  0  0  0  0  0  0  0  0  0
   -0.7500    1.2990    0.0000 C   0  0  0  0  0  0  0  0  0  0  0  0
    0.7500    1.2990    0.0000 C   0  0  0  0  0  0  0  0  0  0  0  0
  1  2  1  0
  2  3  2  0
  3  4  1  0
  4  5  2  0
  5  6  1  0
  6  7  1  0
  7  8  1  0
  8  9  2  0
  9 10  1  0
 10 11  2  0
 11 12  1  0
 12 13  2  0
 11 14  1  0
 14 15  2  0
 15 16  1  0
 16 17  2  0
 17 18  1  0
 17 19  1  0
 19 20  2  0
  5 21  1  0
 21 22  2  0
 22  2  1  0
 13  8  1  0
 20 14  1  0
M  END
>  <Molecule>  (225) 
CHEMBL1986899

>  <Standard Type>  (225) 
Ki

>  <Standard Relation>  (225) 
>

>  <Standard Value>  (225) 
5011.87

>  <Standard Units>  (225) 
nM

>  <pChEMBL Value>  (225) 
nan

>  <Comment>  (225) 
inactive

>  <Compound Key>  (225) 
SID103905446

>  <Assay>  (225) 
CHEMBL1963742

>  <Assay Description>  (225) 
PUBCHEM_BIOASSAY: Navigating the Kinome. (Class of assay: other) Panel member name: JAK3

>  <BAO Format>  (225) 
assay format

>  <Target>  (225) 
CHEMBL2148

>  <Target Pref. Name>  (225) 
Tyrosine-protein kinase JAK3

>  <Target Organism>  (225) 
Homo sapiens

>  <Target Type>  (225) 
SINGLE PROTEIN

>  <Document>  (225) 
CHEMBL1201862

>  <Source>  (225) 
PubChem BioAssays

>  <Max Phase>  (225) 
0

>  <#Ro5 Violations>  (225) 
0

>  <Molecular Weight>  (225) 
292.36

>  <Ligand Efficiency BEI>  (225) 
nan

>  <Ligand Efficiency LE>  (225) 
nan

>  <Ligand Efficiency LLE>  (225) 
nan

>  <Ligand Efficiency SEI>  (225) 
nan

>  <ALogP>  (225) 
4.81

>  <Assay Organism>  (225) 
nan

>  <Assay Tissue ChEMBL ID>  (225) 
nan

>  <Assay Tissue Name>  (225) 
nan

>  <Assay Cell Type>  (225) 
nan

>  <Assay Subcellular Fraction>  (225) 
nan

>  <Organism Tax ID>  (225) 
9606

>  <BAO Format ID>  (225) 
BAO_0000019

>  <Published Type>  (225) 
nan

>  <Published Relation>  (225) 
nan

>  <Published Value>  (225) 
nan

>  <Published Units>  (225) 
nan

>  <Canonical Smiles>  (225) 
Cc1ccc(NCc2ccc(nc2)c3ccc(F)cc3)cc1

>  <Data Validity Comment>  (225) 
nan

>  <Document Journal>  (225) 
nan

>  <Document Year>  (225) 
nan

>  <SRC ID>  (225) 
7

>  <UO Units>  (225) 
UO_0000065

>  <Potential Duplicate>  (225) 
False

>  <Class>  (225) 
0

$$$$

     RDKit          2D

 32 34  0  0  0  0  0  0  0  0999 V2000
   -3.7500    3.8971    0.0000 C   0  0  0  0  0  0  0  0  0  0  0  0
   -2.2500    3.8971    0.0000 N   0  0  0  0  0  0  0  0  0  0  0  0
   -1.5000    2.5981    0.0000 S   0  0  0  0  0  0  0  0  0  0  0  0
   -2.7990    1.8481    0.0000 O   0  0  0  0  0  0  0  0  0  0  0  0
   -0.2010    3.3481    0.0000 O   0  0  0  0  0  0  0  0  0  0  0  0
   -0.7500    1.2990    0.0000 C   0  0  0  0  0  0  0  0  0  0  0  0
   -1.5000   -0.0000    0.0000 C   0  0  0  0  0  0  0  0  0  0  0  0
   -0.7500   -1.2990    0.0000 C   0  0  0  0  0  0  0  0  0  0  0  0
    0.7500   -1.2990    0.0000 C   0  0  0  0  0  0  0  0  0  0  0  0
    1.5000   -0.0000    0.0000 C   0  0  0  0  0  0  0  0  0  0  0  0
    0.7500    1.2990    0.0000 C   0  0  0  0  0  0  0  0  0  0  0  0
    1.5000    2.5981    0.0000 N   0  0  0  0  0  0  0  0  0  0  0  0
    3.0000    2.5981    0.0000 C   0  0  0  0  0  0  0  0  0  0  0  0
    3.7500    1.2990    0.0000 N   0  0  0  0  0  0  0  0  0  0  0  0
    5.2500    1.2990    0.0000 C   0  0  0  0  0  0  0  0  0  0  0  0
    6.0000   -0.0000    0.0000 N   0  0  0  0  0  0  0  0  0  0  0  0
    7.5000   -0.0000    0.0000 C   0  0  0  0  0  0  0  0  0  0  0  0
    8.2500   -1.2990    0.0000 C   0  0  0  0  0  0  0  0  0  0  0  0
    9.7500   -1.2990    0.0000 C   0  0  0  0  0  0  0  0  0  0  0  0
   10.5000   -2.5981    0.0000 O   0  0  0  0  0  0  0  0  0  0  0  0
    9.7500   -3.8971    0.0000 C   0  0  0  0  0  0  0  0  0  0  0  0
   10.5000   -0.0000    0.0000 C   0  0  0  0  0  0  0  0  0  0  0  0
   12.0000    0.0000    0.0000 O   0  0  0  0  0  0  0  0  0  0  0  0
   12.7500    1.2990    0.0000 C   0  0  0  0  0  0  0  0  0  0  0  0
    9.7500    1.2990    0.0000 C   0  0  0  0  0  0  0  0  0  0  0  0
   10.5000    2.5981    0.0000 O   0  0  0  0  0  0  0  0  0  0  0  0
    9.7500    3.8971    0.0000 C   0  0  0  0  0  0  0  0  0  0  0  0
    8.2500    1.2990    0.0000 C   0  0  0  0  0  0  0  0  0  0  0  0
    6.0000    2.5981    0.0000 N   0  0  0  0  0  0  0  0  0  0  0  0
    5.2500    3.8971    0.0000 C   0  0  0  0  0  0  0  0  0  0  0  0
    3.7500    3.8971    0.0000 C   0  0  0  0  0  0  0  0  0  0  0  0
    3.0000    5.1962    0.0000 Cl  0  0  0  0  0  0  0  0  0  0  0  0
  1  2  1  0
  2  3  1  0
  3  4  2  0
  3  5  2  0
  3  6  1  0
  6  7  2  0
  7  8  1  0
  8  9  2  0
  9 10  1  0
 10 11  2  0
 11 12  1  0
 12 13  1  0
 13 14  2  0
 14 15  1  0
 15 16  1  0
 16 17  1  0
 17 18  2  0
 18 19  1  0
 19 20  1  0
 20 21  1  0
 19 22  2  0
 22 23  1  0
 23 24  1  0
 22 25  1  0
 25 26  1  0
 26 27  1  0
 25 28  2  0
 15 29  2  0
 29 30  1  0
 30 31  2  0
 31 32  1  0
 11  6  1  0
 31 13  1  0
 28 17  1  0
M  END
>  <Molecule>  (226) 
CHEMBL1993661

>  <Standard Type>  (226) 
Ki

>  <Standard Relation>  (226) 
=

>  <Standard Value>  (226) 
6.31

>  <Standard Units>  (226) 
nM

>  <pChEMBL Value>  (226) 
8.2

>  <Comment>  (226) 
active

>  <Compound Key>  (226) 
SID103904591

>  <Assay>  (226) 
CHEMBL1963742

>  <Assay Description>  (226) 
PUBCHEM_BIOASSAY: Navigating the Kinome. (Class of assay: other) Panel member name: JAK3

>  <BAO Format>  (226) 
assay format

>  <Target>  (226) 
CHEMBL2148

>  <Target Pref. Name>  (226) 
Tyrosine-protein kinase JAK3

>  <Target Organism>  (226) 
Homo sapiens

>  <Target Type>  (226) 
SINGLE PROTEIN

>  <Document>  (226) 
CHEMBL1201862

>  <Source>  (226) 
PubChem BioAssays

>  <Max Phase>  (226) 
0

>  <#Ro5 Violations>  (226) 
0

>  <Molecular Weight>  (226) 
479.95

>  <Ligand Efficiency BEI>  (226) 
nan

>  <Ligand Efficiency LE>  (226) 
nan

>  <Ligand Efficiency LLE>  (226) 
nan

>  <Ligand Efficiency SEI>  (226) 
nan

>  <ALogP>  (226) 
3.55

>  <Assay Organism>  (226) 
nan

>  <Assay Tissue ChEMBL ID>  (226) 
nan

>  <Assay Tissue Name>  (226) 
nan

>  <Assay Cell Type>  (226) 
nan

>  <Assay Subcellular Fraction>  (226) 
nan

>  <Organism Tax ID>  (226) 
9606

>  <BAO Format ID>  (226) 
BAO_0000019

>  <Published Type>  (226) 
nan

>  <Published Relation>  (226) 
nan

>  <Published Value>  (226) 
nan

>  <Published Units>  (226) 
nan

>  <Canonical Smiles>  (226) 
CNS(=O)(=O)c1ccccc1Nc2nc(Nc3cc(OC)c(OC)c(OC)c3)ncc2Cl

>  <Data Validity Comment>  (226) 
nan

>  <Document Journal>  (226) 
nan

>  <Document Year>  (226) 
nan

>  <SRC ID>  (226) 
7

>  <UO Units>  (226) 
UO_0000065

>  <Potential Duplicate>  (226) 
False

>  <Class>  (226) 
1

$$$$

     RDKit          2D

 23 26  0  0  0  0  0  0  0  0999 V2000
   -6.1170   -7.0506    0.0000 C   0  0  0  0  0  0  0  0  0  0  0  0
   -4.6904   -6.5871    0.0000 N   0  0  0  0  0  0  0  0  0  0  0  0
   -4.3786   -5.1199    0.0000 C   0  0  0  0  0  0  0  0  0  0  0  0
   -2.9520   -4.6564    0.0000 C   0  0  0  0  0  0  0  0  0  0  0  0
   -2.6401   -3.1891    0.0000 C   0  0  0  0  0  0  0  0  0  0  0  0
   -3.7548   -2.1855    0.0000 N   0  0  0  0  0  0  0  0  0  0  0  0
   -5.1814   -2.6490    0.0000 C   0  0  0  0  0  0  0  0  0  0  0  0
   -5.4933   -4.1162    0.0000 N   0  0  0  0  0  0  0  0  0  0  0  0
   -1.2135   -2.7256    0.0000 C   0  0  0  0  0  0  0  0  0  0  0  0
    0.0000   -3.6073    0.0000 C   0  0  0  0  0  0  0  0  0  0  0  0
    1.2135   -2.7256    0.0000 N   0  0  0  0  0  0  0  0  0  0  0  0
    0.7500   -1.2990    0.0000 C   0  0  0  0  0  0  0  0  0  0  0  0
    1.5000    0.0000    0.0000 N   0  0  0  0  0  0  0  0  0  0  0  0
    0.7500    1.2990    0.0000 C   0  0  0  0  0  0  0  0  0  0  0  0
   -0.7500    1.2990    0.0000 C   0  0  0  0  0  0  0  0  0  0  0  0
   -1.5000    0.0000    0.0000 C   0  0  0  0  0  0  0  0  0  0  0  0
   -0.7500   -1.2990    0.0000 C   0  0  0  0  0  0  0  0  0  0  0  0
   -6.4289   -8.5179    0.0000 C   0  0  0  0  0  0  0  0  0  0  0  0
   -7.8555   -8.9814    0.0000 C   0  0  0  0  0  0  0  0  0  0  0  0
   -8.1673  -10.4486    0.0000 C   0  0  0  0  0  0  0  0  0  0  0  0
   -7.0526  -11.4523    0.0000 C   0  0  0  0  0  0  0  0  0  0  0  0
   -5.6260  -10.9888    0.0000 C   0  0  0  0  0  0  0  0  0  0  0  0
   -5.3142   -9.5216    0.0000 C   0  0  0  0  0  0  0  0  0  0  0  0
  1  2  1  0
  2  3  1  0
  3  4  2  0
  4  5  1  0
  5  6  2  0
  6  7  1  0
  7  8  2  0
  5  9  1  0
  9 10  2  0
 10 11  1  0
 11 12  1  0
 12 13  2  0
 13 14  1  0
 14 15  2  0
 15 16  1  0
 16 17  2  0
  1 18  1  0
 18 19  2  0
 19 20  1  0
 20 21  2  0
 21 22  1  0
 22 23  2  0
  8  3  1  0
 17  9  1  0
 17 12  1  0
 23 18  1  0
M  END
>  <Molecule>  (227) 
CHEMBL2002346

>  <Standard Type>  (227) 
Ki

>  <Standard Relation>  (227) 
=

>  <Standard Value>  (227) 
31.62

>  <Standard Units>  (227) 
nM

>  <pChEMBL Value>  (227) 
7.5

>  <Comment>  (227) 
active

>  <Compound Key>  (227) 
SID103904201

>  <Assay>  (227) 
CHEMBL1963742

>  <Assay Description>  (227) 
PUBCHEM_BIOASSAY: Navigating the Kinome. (Class of assay: other) Panel member name: JAK3

>  <BAO Format>  (227) 
assay format

>  <Target>  (227) 
CHEMBL2148

>  <Target Pref. Name>  (227) 
Tyrosine-protein kinase JAK3

>  <Target Organism>  (227) 
Homo sapiens

>  <Target Type>  (227) 
SINGLE PROTEIN

>  <Document>  (227) 
CHEMBL1201862

>  <Source>  (227) 
PubChem BioAssays

>  <Max Phase>  (227) 
0

>  <#Ro5 Violations>  (227) 
0

>  <Molecular Weight>  (227) 
301.35

>  <Ligand Efficiency BEI>  (227) 
nan

>  <Ligand Efficiency LE>  (227) 
nan

>  <Ligand Efficiency LLE>  (227) 
nan

>  <Ligand Efficiency SEI>  (227) 
nan

>  <ALogP>  (227) 
3.63

>  <Assay Organism>  (227) 
nan

>  <Assay Tissue ChEMBL ID>  (227) 
nan

>  <Assay Tissue Name>  (227) 
nan

>  <Assay Cell Type>  (227) 
nan

>  <Assay Subcellular Fraction>  (227) 
nan

>  <Organism Tax ID>  (227) 
9606

>  <BAO Format ID>  (227) 
BAO_0000019

>  <Published Type>  (227) 
nan

>  <Published Relation>  (227) 
nan

>  <Published Value>  (227) 
nan

>  <Published Units>  (227) 
nan

>  <Canonical Smiles>  (227) 
C(Nc1cc(ncn1)c2c[nH]c3ncccc23)c4ccccc4

>  <Data Validity Comment>  (227) 
nan

>  <Document Journal>  (227) 
nan

>  <Document Year>  (227) 
nan

>  <SRC ID>  (227) 
7

>  <UO Units>  (227) 
UO_0000065

>  <Potential Duplicate>  (227) 
False

>  <Class>  (227) 
1

$$$$

     RDKit          2D

 35 38  0  0  0  0  0  0  0  0999 V2000
   -7.5000  -10.3923    0.0000 C   0  0  0  0  0  0  0  0  0  0  0  0
   -6.0000  -10.3923    0.0000 C   0  0  0  0  0  0  0  0  0  0  0  0
   -5.2500   -9.0933    0.0000 N   0  0  0  0  0  0  0  0  0  0  0  0
   -6.0000   -7.7942    0.0000 C   0  0  0  0  0  0  0  0  0  0  0  0
   -7.5000   -7.7942    0.0000 C   0  0  0  0  0  0  0  0  0  0  0  0
   -3.7500   -9.0933    0.0000 C   0  0  0  0  0  0  0  0  0  0  0  0
   -3.0000   -7.7942    0.0000 C   0  0  0  0  0  0  0  0  0  0  0  0
   -1.5000   -7.7942    0.0000 O   0  0  0  0  0  0  0  0  0  0  0  0
   -0.7500   -6.4952    0.0000 C   0  0  0  0  0  0  0  0  0  0  0  0
   -1.5000   -5.1962    0.0000 C   0  0  0  0  0  0  0  0  0  0  0  0
   -0.7500   -3.8971    0.0000 C   0  0  0  0  0  0  0  0  0  0  0  0
    0.7500   -3.8971    0.0000 C   0  0  0  0  0  0  0  0  0  0  0  0
    1.5000   -2.5981    0.0000 N   0  0  0  0  0  0  0  0  0  0  0  0
    0.7500   -1.2990    0.0000 C   0  0  0  0  0  0  0  0  0  0  0  0
    1.5000    0.0000    0.0000 N   0  0  0  0  0  0  0  0  0  0  0  0
    0.7500    1.2990    0.0000 C   0  0  0  0  0  0  0  0  0  0  0  0
   -0.7500    1.2990    0.0000 C   0  0  0  0  0  0  0  0  0  0  0  0
   -1.5000    2.5981    0.0000 C   0  0  0  0  0  0  0  0  0  0  0  0
   -3.0000    2.5981    0.0000 C   0  0  0  0  0  0  0  0  0  0  0  0
   -3.7500    1.2990    0.0000 C   0  0  0  0  0  0  0  0  0  0  0  0
   -5.2500    1.2990    0.0000 O   0  0  0  0  0  0  0  0  0  0  0  0
   -3.0000    0.0000    0.0000 N   0  0  0  0  0  0  0  0  0  0  0  0
   -3.7500   -1.2990    0.0000 C   0  0  0  0  0  0  0  0  0  0  0  0
   -1.5000    0.0000    0.0000 C   0  0  0  0  0  0  0  0  0  0  0  0
   -0.7500   -1.2990    0.0000 N   0  0  0  0  0  0  0  0  0  0  0  0
   -3.7500    3.8971    0.0000 C   0  0  0  0  0  0  0  0  0  0  0  0
   -3.0000    5.1962    0.0000 C   0  0  0  0  0  0  0  0  0  0  0  0
   -1.5000    5.1962    0.0000 Cl  0  0  0  0  0  0  0  0  0  0  0  0
   -3.7500    6.4952    0.0000 C   0  0  0  0  0  0  0  0  0  0  0  0
   -5.2500    6.4952    0.0000 C   0  0  0  0  0  0  0  0  0  0  0  0
   -6.0000    5.1962    0.0000 C   0  0  0  0  0  0  0  0  0  0  0  0
   -5.2500    3.8971    0.0000 C   0  0  0  0  0  0  0  0  0  0  0  0
   -6.0000    2.5981    0.0000 Cl  0  0  0  0  0  0  0  0  0  0  0  0
    1.5000   -5.1962    0.0000 C   0  0  0  0  0  0  0  0  0  0  0  0
    0.7500   -6.4952    0.0000 C   0  0  0  0  0  0  0  0  0  0  0  0
  1  2  1  0
  2  3  1  0
  3  4  1  0
  4  5  1  0
  3  6  1  0
  6  7  1  0
  7  8  1  0
  8  9  1  0
  9 10  2  0
 10 11  1  0
 11 12  2  0
 12 13  1  0
 13 14  1  0
 14 15  2  0
 15 16  1  0
 16 17  2  0
 17 18  1  0
 18 19  2  0
 19 20  1  0
 20 21  2  0
 20 22  1  0
 22 23  1  0
 22 24  1  0
 24 25  2  0
 19 26  1  0
 26 27  2  0
 27 28  1  0
 27 29  1  0
 29 30  2  0
 30 31  1  0
 31 32  2  0
 32 33  1  0
 12 34  1  0
 34 35  2  0
 35  9  1  0
 25 14  1  0
 24 17  1  0
 32 26  1  0
M  END
>  <Molecule>  (228) 
CHEMBL49120

>  <Standard Type>  (228) 
Ki

>  <Standard Relation>  (228) 
=

>  <Standard Value>  (228) 
398.11

>  <Standard Units>  (228) 
nM

>  <pChEMBL Value>  (228) 
6.4

>  <Comment>  (228) 
active

>  <Compound Key>  (228) 
SID103905313

>  <Assay>  (228) 
CHEMBL1963742

>  <Assay Description>  (228) 
PUBCHEM_BIOASSAY: Navigating the Kinome. (Class of assay: other) Panel member name: JAK3

>  <BAO Format>  (228) 
assay format

>  <Target>  (228) 
CHEMBL2148

>  <Target Pref. Name>  (228) 
Tyrosine-protein kinase JAK3

>  <Target Organism>  (228) 
Homo sapiens

>  <Target Type>  (228) 
SINGLE PROTEIN

>  <Document>  (228) 
CHEMBL1201862

>  <Source>  (228) 
PubChem BioAssays

>  <Max Phase>  (228) 
1

>  <#Ro5 Violations>  (228) 
2

>  <Molecular Weight>  (228) 
512.44

>  <Ligand Efficiency BEI>  (228) 
nan

>  <Ligand Efficiency LE>  (228) 
nan

>  <Ligand Efficiency LLE>  (228) 
nan

>  <Ligand Efficiency SEI>  (228) 
nan

>  <ALogP>  (228) 
5.77

>  <Assay Organism>  (228) 
nan

>  <Assay Tissue ChEMBL ID>  (228) 
nan

>  <Assay Tissue Name>  (228) 
nan

>  <Assay Cell Type>  (228) 
nan

>  <Assay Subcellular Fraction>  (228) 
nan

>  <Organism Tax ID>  (228) 
9606

>  <BAO Format ID>  (228) 
BAO_0000019

>  <Published Type>  (228) 
nan

>  <Published Relation>  (228) 
nan

>  <Published Value>  (228) 
nan

>  <Published Units>  (228) 
nan

>  <Canonical Smiles>  (228) 
CCN(CC)CCOc1ccc(Nc2ncc3C=C(C(=O)N(C)c3n2)c4c(Cl)cccc4Cl)cc1

>  <Data Validity Comment>  (228) 
nan

>  <Document Journal>  (228) 
nan

>  <Document Year>  (228) 
nan

>  <SRC ID>  (228) 
7

>  <UO Units>  (228) 
UO_0000065

>  <Potential Duplicate>  (228) 
False

>  <Class>  (228) 
1

$$$$

     RDKit          2D

 26 29  0  0  0  0  0  0  0  0999 V2000
    3.0000    0.0000    0.0000 C   0  0  0  0  0  0  0  0  0  0  0  0
    1.5000    0.0000    0.0000 C   0  0  0  0  0  0  0  0  0  0  0  0
    0.7500   -1.2990    0.0000 C   0  0  0  0  0  0  0  0  0  0  0  0
   -0.7500   -1.2990    0.0000 C   0  0  0  0  0  0  0  0  0  0  0  0
   -1.5000    0.0000    0.0000 C   0  0  0  0  0  0  0  0  0  0  0  0
   -0.7500    1.2990    0.0000 C   0  0  0  0  0  0  0  0  0  0  0  0
    0.7500    1.2990    0.0000 C   0  0  0  0  0  0  0  0  0  0  0  0
   -1.5000    2.5981    0.0000 C   0  0  0  0  0  0  0  0  0  0  0  0
   -2.6491    3.5623    0.0000 C   0  0  0  0  0  0  0  0  0  0  0  0
   -2.9095    2.0850    0.0000 C   0  0  0  0  0  0  0  0  0  0  0  0
   -3.8737    0.9360    0.0000 C   0  0  0  0  0  0  0  0  0  0  0  0
   -3.3607   -0.4736    0.0000 O   0  0  0  0  0  0  0  0  0  0  0  0
   -5.3509    1.1965    0.0000 N   0  0  0  0  0  0  0  0  0  0  0  0
   -6.3151    0.0474    0.0000 C   0  0  0  0  0  0  0  0  0  0  0  0
   -7.7923    0.3079    0.0000 C   0  0  0  0  0  0  0  0  0  0  0  0
   -8.7565   -0.8412    0.0000 C   0  0  0  0  0  0  0  0  0  0  0  0
   -8.2435   -2.2507    0.0000 N   0  0  0  0  0  0  0  0  0  0  0  0
   -6.7663   -2.5112    0.0000 C   0  0  0  0  0  0  0  0  0  0  0  0
   -5.8021   -1.3622    0.0000 C   0  0  0  0  0  0  0  0  0  0  0  0
   -0.3509    3.5623    0.0000 C   0  0  0  0  0  0  0  0  0  0  0  0
    1.0586    3.0492    0.0000 C   0  0  0  0  0  0  0  0  0  0  0  0
    2.2077    4.0134    0.0000 C   0  0  0  0  0  0  0  0  0  0  0  0
    1.9472    5.4906    0.0000 C   0  0  0  0  0  0  0  0  0  0  0  0
    0.5377    6.0037    0.0000 C   0  0  0  0  0  0  0  0  0  0  0  0
    0.2772    7.4809    0.0000 C   0  0  0  0  0  0  0  0  0  0  0  0
   -0.6114    5.0395    0.0000 C   0  0  0  0  0  0  0  0  0  0  0  0
  1  2  1  0
  2  3  2  0
  3  4  1  0
  4  5  2  0
  5  6  1  0
  6  7  2  0
  6  8  1  0
  8  9  1  0
  9 10  1  0
 10 11  1  0
 11 12  2  0
 11 13  1  0
 13 14  1  0
 14 15  2  0
 15 16  1  0
 16 17  2  0
 17 18  1  0
 18 19  2  0
  8 20  1  0
 20 21  2  0
 21 22  1  0
 22 23  2  0
 23 24  1  0
 24 25  1  0
 24 26  2  0
  7  2  1  0
 10  8  1  0
 19 14  1  0
 26 20  1  0
M  END
>  <Molecule>  (229) 
CHEMBL1999496

>  <Standard Type>  (229) 
Ki

>  <Standard Relation>  (229) 
>

>  <Standard Value>  (229) 
1584.89

>  <Standard Units>  (229) 
nM

>  <pChEMBL Value>  (229) 
nan

>  <Comment>  (229) 
inactive

>  <Compound Key>  (229) 
SID103904958

>  <Assay>  (229) 
CHEMBL1963742

>  <Assay Description>  (229) 
PUBCHEM_BIOASSAY: Navigating the Kinome. (Class of assay: other) Panel member name: JAK3

>  <BAO Format>  (229) 
assay format

>  <Target>  (229) 
CHEMBL2148

>  <Target Pref. Name>  (229) 
Tyrosine-protein kinase JAK3

>  <Target Organism>  (229) 
Homo sapiens

>  <Target Type>  (229) 
SINGLE PROTEIN

>  <Document>  (229) 
CHEMBL1201862

>  <Source>  (229) 
PubChem BioAssays

>  <Max Phase>  (229) 
0

>  <#Ro5 Violations>  (229) 
0

>  <Molecular Weight>  (229) 
342.44

>  <Ligand Efficiency BEI>  (229) 
nan

>  <Ligand Efficiency LE>  (229) 
nan

>  <Ligand Efficiency LLE>  (229) 
nan

>  <Ligand Efficiency SEI>  (229) 
nan

>  <ALogP>  (229) 
4.64

>  <Assay Organism>  (229) 
nan

>  <Assay Tissue ChEMBL ID>  (229) 
nan

>  <Assay Tissue Name>  (229) 
nan

>  <Assay Cell Type>  (229) 
nan

>  <Assay Subcellular Fraction>  (229) 
nan

>  <Organism Tax ID>  (229) 
9606

>  <BAO Format ID>  (229) 
BAO_0000019

>  <Published Type>  (229) 
nan

>  <Published Relation>  (229) 
nan

>  <Published Value>  (229) 
nan

>  <Published Units>  (229) 
nan

>  <Canonical Smiles>  (229) 
Cc1cccc(c1)C2(CC2C(=O)Nc3ccncc3)c4cccc(C)c4

>  <Data Validity Comment>  (229) 
nan

>  <Document Journal>  (229) 
nan

>  <Document Year>  (229) 
nan

>  <SRC ID>  (229) 
7

>  <UO Units>  (229) 
UO_0000065

>  <Potential Duplicate>  (229) 
False

>  <Class>  (229) 
0

$$$$

     RDKit          2D

 21 23  0  0  0  0  0  0  0  0999 V2000
   -3.7500   -3.8971    0.0000 O   0  0  0  0  0  0  0  0  0  0  0  0
   -3.0000   -2.5981    0.0000 N   0  0  0  0  0  0  0  0  0  0  0  0
   -1.5000   -2.5981    0.0000 C   0  0  0  0  0  0  0  0  0  0  0  0
   -0.7500   -3.8971    0.0000 C   0  0  0  0  0  0  0  0  0  0  0  0
    0.7500   -3.8971    0.0000 C   0  0  0  0  0  0  0  0  0  0  0  0
    1.5000   -2.5981    0.0000 O   0  0  0  0  0  0  0  0  0  0  0  0
    0.7500   -1.2990    0.0000 C   0  0  0  0  0  0  0  0  0  0  0  0
    1.5000    0.0000    0.0000 C   0  0  0  0  0  0  0  0  0  0  0  0
    3.0000    0.0000    0.0000 C   0  0  0  0  0  0  0  0  0  0  0  0
    3.7500    1.2990    0.0000 C   0  0  0  0  0  0  0  0  0  0  0  0
    5.2500    1.2990    0.0000 C   0  0  0  0  0  0  0  0  0  0  0  0
    0.7500    1.2990    0.0000 C   0  0  0  0  0  0  0  0  0  0  0  0
   -0.7500    1.2990    0.0000 C   0  0  0  0  0  0  0  0  0  0  0  0
   -1.5000    0.0000    0.0000 C   0  0  0  0  0  0  0  0  0  0  0  0
   -0.7500   -1.2990    0.0000 C   0  0  0  0  0  0  0  0  0  0  0  0
    1.5000   -5.1962    0.0000 C   0  0  0  0  0  0  0  0  0  0  0  0
    0.7500   -6.4952    0.0000 C   0  0  0  0  0  0  0  0  0  0  0  0
    1.5000   -7.7942    0.0000 C   0  0  0  0  0  0  0  0  0  0  0  0
    3.0000   -7.7942    0.0000 C   0  0  0  0  0  0  0  0  0  0  0  0
    3.7500   -6.4952    0.0000 C   0  0  0  0  0  0  0  0  0  0  0  0
    3.0000   -5.1962    0.0000 C   0  0  0  0  0  0  0  0  0  0  0  0
  1  2  1  0
  2  3  2  3
  3  4  1  0
  4  5  2  0
  5  6  1  0
  6  7  1  0
  7  8  2  0
  8  9  1  0
  9 10  1  0
 10 11  2  0
  8 12  1  0
 12 13  2  0
 13 14  1  0
 14 15  2  0
  5 16  1  0
 16 17  2  0
 17 18  1  0
 18 19  2  0
 19 20  1  0
 20 21  2  0
 15  3  1  0
 15  7  1  0
 21 16  1  0
M  END
>  <Molecule>  (230) 
CHEMBL1977749

>  <Standard Type>  (230) 
Ki

>  <Standard Relation>  (230) 
>

>  <Standard Value>  (230) 
5011.87

>  <Standard Units>  (230) 
nM

>  <pChEMBL Value>  (230) 
nan

>  <Comment>  (230) 
inactive

>  <Compound Key>  (230) 
SID103905602

>  <Assay>  (230) 
CHEMBL1963742

>  <Assay Description>  (230) 
PUBCHEM_BIOASSAY: Navigating the Kinome. (Class of assay: other) Panel member name: JAK3

>  <BAO Format>  (230) 
assay format

>  <Target>  (230) 
CHEMBL2148

>  <Target Pref. Name>  (230) 
Tyrosine-protein kinase JAK3

>  <Target Organism>  (230) 
Homo sapiens

>  <Target Type>  (230) 
SINGLE PROTEIN

>  <Document>  (230) 
CHEMBL1201862

>  <Source>  (230) 
PubChem BioAssays

>  <Max Phase>  (230) 
0

>  <#Ro5 Violations>  (230) 
0

>  <Molecular Weight>  (230) 
277.32

>  <Ligand Efficiency BEI>  (230) 
nan

>  <Ligand Efficiency LE>  (230) 
nan

>  <Ligand Efficiency LLE>  (230) 
nan

>  <Ligand Efficiency SEI>  (230) 
nan

>  <ALogP>  (230) 
4.12

>  <Assay Organism>  (230) 
nan

>  <Assay Tissue ChEMBL ID>  (230) 
nan

>  <Assay Tissue Name>  (230) 
nan

>  <Assay Cell Type>  (230) 
nan

>  <Assay Subcellular Fraction>  (230) 
nan

>  <Organism Tax ID>  (230) 
9606

>  <BAO Format ID>  (230) 
BAO_0000019

>  <Published Type>  (230) 
nan

>  <Published Relation>  (230) 
nan

>  <Published Value>  (230) 
nan

>  <Published Units>  (230) 
nan

>  <Canonical Smiles>  (230) 
ON=C1C=C(Oc2c(CC=C)cccc12)c3ccccc3

>  <Data Validity Comment>  (230) 
nan

>  <Document Journal>  (230) 
nan

>  <Document Year>  (230) 
nan

>  <SRC ID>  (230) 
7

>  <UO Units>  (230) 
UO_0000065

>  <Potential Duplicate>  (230) 
False

>  <Class>  (230) 
0

$$$$

     RDKit          2D

 28 31  0  0  0  0  0  0  0  0999 V2000
    3.7500  -14.2894    0.0000 C   0  0  0  0  0  0  0  0  0  0  0  0
    3.0000  -12.9904    0.0000 C   0  0  0  0  0  0  0  0  0  0  0  0
    1.5000  -12.9904    0.0000 C   0  0  0  0  0  0  0  0  0  0  0  0
    0.7500  -11.6913    0.0000 C   0  0  0  0  0  0  0  0  0  0  0  0
   -0.7500  -11.6913    0.0000 C   0  0  0  0  0  0  0  0  0  0  0  0
    1.5000  -10.3923    0.0000 C   0  0  0  0  0  0  0  0  0  0  0  0
    3.0000  -10.3923    0.0000 C   0  0  0  0  0  0  0  0  0  0  0  0
    3.7500   -9.0933    0.0000 N   0  0  0  0  0  0  0  0  0  0  0  0
    3.0000   -7.7942    0.0000 C   0  0  0  0  0  0  0  0  0  0  0  0
    1.5000   -7.7942    0.0000 O   0  0  0  0  0  0  0  0  0  0  0  0
    3.7500   -6.4952    0.0000 N   0  0  0  0  0  0  0  0  0  0  0  0
    3.0000   -5.1962    0.0000 C   0  0  0  0  0  0  0  0  0  0  0  0
    3.7500   -3.8971    0.0000 C   0  0  0  0  0  0  0  0  0  0  0  0
    3.0000   -2.5981    0.0000 C   0  0  0  0  0  0  0  0  0  0  0  0
    1.5000   -2.5981    0.0000 C   0  0  0  0  0  0  0  0  0  0  0  0
    0.7500   -3.8971    0.0000 C   0  0  0  0  0  0  0  0  0  0  0  0
    1.5000   -5.1962    0.0000 C   0  0  0  0  0  0  0  0  0  0  0  0
    0.7500   -1.2990    0.0000 C   0  0  0  0  0  0  0  0  0  0  0  0
    1.5000    0.0000    0.0000 C   0  0  0  0  0  0  0  0  0  0  0  0
    0.7500    1.2990    0.0000 C   0  0  0  0  0  0  0  0  0  0  0  0
   -0.7500    1.2990    0.0000 C   0  0  0  0  0  0  0  0  0  0  0  0
   -1.5000    0.0000    0.0000 C   0  0  0  0  0  0  0  0  0  0  0  0
   -2.9672   -0.3119    0.0000 S   0  0  0  0  0  0  0  0  0  0  0  0
   -3.1240   -1.8037    0.0000 N   0  0  0  0  0  0  0  0  0  0  0  0
   -1.7537   -2.4138    0.0000 C   0  0  0  0  0  0  0  0  0  0  0  0
   -1.4418   -3.8810    0.0000 N   0  0  0  0  0  0  0  0  0  0  0  0
   -0.7500   -1.2990    0.0000 C   0  0  0  0  0  0  0  0  0  0  0  0
    3.7500  -11.6913    0.0000 C   0  0  0  0  0  0  0  0  0  0  0  0
  1  2  1  0
  2  3  2  0
  3  4  1  0
  4  5  1  0
  4  6  2  0
  6  7  1  0
  7  8  1  0
  8  9  1  0
  9 10  2  0
  9 11  1  0
 11 12  1  0
 12 13  2  0
 13 14  1  0
 14 15  2  0
 15 16  1  0
 16 17  2  0
 15 18  1  0
 18 19  2  0
 19 20  1  0
 20 21  2  0
 21 22  1  0
 22 23  1  0
 23 24  1  0
 24 25  2  0
 25 26  1  0
 25 27  1  0
  7 28  2  0
 28  2  1  0
 17 12  1  0
 27 18  1  0
 27 22  2  0
M  END
>  <Molecule>  (231) 
CHEMBL1976328

>  <Standard Type>  (231) 
Ki

>  <Standard Relation>  (231) 
>

>  <Standard Value>  (231) 
1584.89

>  <Standard Units>  (231) 
nM

>  <pChEMBL Value>  (231) 
nan

>  <Comment>  (231) 
inactive

>  <Compound Key>  (231) 
SID103904381

>  <Assay>  (231) 
CHEMBL1963742

>  <Assay Description>  (231) 
PUBCHEM_BIOASSAY: Navigating the Kinome. (Class of assay: other) Panel member name: JAK3

>  <BAO Format>  (231) 
assay format

>  <Target>  (231) 
CHEMBL2148

>  <Target Pref. Name>  (231) 
Tyrosine-protein kinase JAK3

>  <Target Organism>  (231) 
Homo sapiens

>  <Target Type>  (231) 
SINGLE PROTEIN

>  <Document>  (231) 
CHEMBL1201862

>  <Source>  (231) 
PubChem BioAssays

>  <Max Phase>  (231) 
0

>  <#Ro5 Violations>  (231) 
1

>  <Molecular Weight>  (231) 
388.5

>  <Ligand Efficiency BEI>  (231) 
nan

>  <Ligand Efficiency LE>  (231) 
nan

>  <Ligand Efficiency LLE>  (231) 
nan

>  <Ligand Efficiency SEI>  (231) 
nan

>  <ALogP>  (231) 
5.81

>  <Assay Organism>  (231) 
nan

>  <Assay Tissue ChEMBL ID>  (231) 
nan

>  <Assay Tissue Name>  (231) 
nan

>  <Assay Cell Type>  (231) 
nan

>  <Assay Subcellular Fraction>  (231) 
nan

>  <Organism Tax ID>  (231) 
9606

>  <BAO Format ID>  (231) 
BAO_0000019

>  <Published Type>  (231) 
nan

>  <Published Relation>  (231) 
nan

>  <Published Value>  (231) 
nan

>  <Published Units>  (231) 
nan

>  <Canonical Smiles>  (231) 
Cc1cc(C)cc(NC(=O)Nc2ccc(cc2)c3cccc4snc(N)c34)c1

>  <Data Validity Comment>  (231) 
nan

>  <Document Journal>  (231) 
nan

>  <Document Year>  (231) 
nan

>  <SRC ID>  (231) 
7

>  <UO Units>  (231) 
UO_0000065

>  <Potential Duplicate>  (231) 
False

>  <Class>  (231) 
0

$$$$

     RDKit          2D

 26 29  0  0  0  0  0  0  0  0999 V2000
    0.0361   12.0242    0.0000 C   0  0  0  0  0  0  0  0  0  0  0  0
   -0.2758   10.5570    0.0000 C   0  0  0  0  0  0  0  0  0  0  0  0
   -1.7024   10.0935    0.0000 N   0  0  0  0  0  0  0  0  0  0  0  0
   -2.8171   11.0972    0.0000 C   0  0  0  0  0  0  0  0  0  0  0  0
   -4.2437   10.6337    0.0000 O   0  0  0  0  0  0  0  0  0  0  0  0
   -2.5052   12.5644    0.0000 C   0  0  0  0  0  0  0  0  0  0  0  0
   -2.0143    8.6263    0.0000 C   0  0  0  0  0  0  0  0  0  0  0  0
   -0.8995    7.6226    0.0000 C   0  0  0  0  0  0  0  0  0  0  0  0
   -1.2114    6.1554    0.0000 C   0  0  0  0  0  0  0  0  0  0  0  0
   -2.6380    5.6918    0.0000 C   0  0  0  0  0  0  0  0  0  0  0  0
   -2.9499    4.2246    0.0000 N   0  0  0  0  0  0  0  0  0  0  0  0
   -1.8351    3.2209    0.0000 C   0  0  0  0  0  0  0  0  0  0  0  0
   -0.4086    3.6844    0.0000 N   0  0  0  0  0  0  0  0  0  0  0  0
    0.7062    2.6807    0.0000 C   0  0  0  0  0  0  0  0  0  0  0  0
    2.1328    3.1443    0.0000 N   0  0  0  0  0  0  0  0  0  0  0  0
    2.4446    4.6115    0.0000 C   0  0  0  0  0  0  0  0  0  0  0  0
    1.9811    6.0381    0.0000 C   0  0  0  0  0  0  0  0  0  0  0  0
    3.4483    5.7262    0.0000 C   0  0  0  0  0  0  0  0  0  0  0  0
    0.3943    1.2135    0.0000 C   0  0  0  0  0  0  0  0  0  0  0  0
    1.2760    0.0000    0.0000 N   0  0  0  0  0  0  0  0  0  0  0  0
    0.3943   -1.2135    0.0000 C   0  0  0  0  0  0  0  0  0  0  0  0
   -1.0323   -0.7500    0.0000 N   0  0  0  0  0  0  0  0  0  0  0  0
   -1.0323    0.7500    0.0000 C   0  0  0  0  0  0  0  0  0  0  0  0
   -2.1470    1.7537    0.0000 N   0  0  0  0  0  0  0  0  0  0  0  0
   -3.7527    6.6955    0.0000 C   0  0  0  0  0  0  0  0  0  0  0  0
   -3.4408    8.1628    0.0000 C   0  0  0  0  0  0  0  0  0  0  0  0
  1  2  1  0
  2  3  1  0
  3  4  1  0
  4  5  2  0
  4  6  1  0
  3  7  1  0
  7  8  2  0
  8  9  1  0
  9 10  2  0
 10 11  1  0
 11 12  1  0
 12 13  2  0
 13 14  1  0
 14 15  1  0
 15 16  1  0
 16 17  1  0
 17 18  1  0
 14 19  2  0
 19 20  1  0
 20 21  2  0
 21 22  1  0
 22 23  1  0
 23 24  2  0
 10 25  1  0
 25 26  2  0
 26  7  1  0
 24 12  1  0
 18 16  1  0
 23 19  1  0
M  END
>  <Molecule>  (232) 
CHEMBL2006564

>  <Standard Type>  (232) 
Ki

>  <Standard Relation>  (232) 
=

>  <Standard Value>  (232) 
316.23

>  <Standard Units>  (232) 
nM

>  <pChEMBL Value>  (232) 
6.5

>  <Comment>  (232) 
active

>  <Compound Key>  (232) 
SID103905004

>  <Assay>  (232) 
CHEMBL1963742

>  <Assay Description>  (232) 
PUBCHEM_BIOASSAY: Navigating the Kinome. (Class of assay: other) Panel member name: JAK3

>  <BAO Format>  (232) 
assay format

>  <Target>  (232) 
CHEMBL2148

>  <Target Pref. Name>  (232) 
Tyrosine-protein kinase JAK3

>  <Target Organism>  (232) 
Homo sapiens

>  <Target Type>  (232) 
SINGLE PROTEIN

>  <Document>  (232) 
CHEMBL1201862

>  <Source>  (232) 
PubChem BioAssays

>  <Max Phase>  (232) 
0

>  <#Ro5 Violations>  (232) 
0

>  <Molecular Weight>  (232) 
351.41

>  <Ligand Efficiency BEI>  (232) 
nan

>  <Ligand Efficiency LE>  (232) 
nan

>  <Ligand Efficiency LLE>  (232) 
nan

>  <Ligand Efficiency SEI>  (232) 
nan

>  <ALogP>  (232) 
3.04

>  <Assay Organism>  (232) 
nan

>  <Assay Tissue ChEMBL ID>  (232) 
nan

>  <Assay Tissue Name>  (232) 
nan

>  <Assay Cell Type>  (232) 
nan

>  <Assay Subcellular Fraction>  (232) 
nan

>  <Organism Tax ID>  (232) 
9606

>  <BAO Format ID>  (232) 
BAO_0000019

>  <Published Type>  (232) 
nan

>  <Published Relation>  (232) 
nan

>  <Published Value>  (232) 
nan

>  <Published Units>  (232) 
nan

>  <Canonical Smiles>  (232) 
CCN(C(=O)C)c1ccc(Nc2nc(NC3CC3)c4nc[nH]c4n2)cc1

>  <Data Validity Comment>  (232) 
nan

>  <Document Journal>  (232) 
nan

>  <Document Year>  (232) 
nan

>  <SRC ID>  (232) 
7

>  <UO Units>  (232) 
UO_0000065

>  <Potential Duplicate>  (232) 
False

>  <Class>  (232) 
1

$$$$

     RDKit          2D

 23 26  0  0  0  0  0  0  0  0999 V2000
   -6.2961   -1.6453    0.0000 Cl  0  0  0  0  0  0  0  0  0  0  0  0
   -5.1814   -2.6490    0.0000 C   0  0  0  0  0  0  0  0  0  0  0  0
   -3.7548   -2.1855    0.0000 C   0  0  0  0  0  0  0  0  0  0  0  0
   -2.6401   -3.1891    0.0000 C   0  0  0  0  0  0  0  0  0  0  0  0
   -2.9520   -4.6564    0.0000 N   0  0  0  0  0  0  0  0  0  0  0  0
   -4.3786   -5.1199    0.0000 C   0  0  0  0  0  0  0  0  0  0  0  0
   -4.6904   -6.5871    0.0000 N   0  0  0  0  0  0  0  0  0  0  0  0
   -6.1170   -7.0506    0.0000 C   0  0  0  0  0  0  0  0  0  0  0  0
   -7.2317   -6.0469    0.0000 C   0  0  0  0  0  0  0  0  0  0  0  0
   -8.6583   -6.5105    0.0000 C   0  0  0  0  0  0  0  0  0  0  0  0
   -8.9702   -7.9777    0.0000 O   0  0  0  0  0  0  0  0  0  0  0  0
   -7.8555   -8.9814    0.0000 C   0  0  0  0  0  0  0  0  0  0  0  0
   -6.4289   -8.5179    0.0000 C   0  0  0  0  0  0  0  0  0  0  0  0
   -5.4933   -4.1162    0.0000 N   0  0  0  0  0  0  0  0  0  0  0  0
   -1.2135   -2.7256    0.0000 C   0  0  0  0  0  0  0  0  0  0  0  0
    0.0000   -3.6073    0.0000 C   0  0  0  0  0  0  0  0  0  0  0  0
    1.2135   -2.7256    0.0000 N   0  0  0  0  0  0  0  0  0  0  0  0
    0.7500   -1.2990    0.0000 C   0  0  0  0  0  0  0  0  0  0  0  0
    1.5000    0.0000    0.0000 N   0  0  0  0  0  0  0  0  0  0  0  0
    0.7500    1.2990    0.0000 C   0  0  0  0  0  0  0  0  0  0  0  0
   -0.7500    1.2990    0.0000 C   0  0  0  0  0  0  0  0  0  0  0  0
   -1.5000    0.0000    0.0000 C   0  0  0  0  0  0  0  0  0  0  0  0
   -0.7500   -1.2990    0.0000 C   0  0  0  0  0  0  0  0  0  0  0  0
  1  2  1  0
  2  3  2  0
  3  4  1  0
  4  5  2  0
  5  6  1  0
  6  7  1  0
  7  8  1  0
  8  9  1  0
  9 10  1  0
 10 11  1  0
 11 12  1  0
 12 13  1  0
  6 14  2  0
  4 15  1  0
 15 16  2  0
 16 17  1  0
 17 18  1  0
 18 19  2  0
 19 20  1  0
 20 21  2  0
 21 22  1  0
 22 23  2  0
 14  2  1  0
 13  8  1  0
 23 15  1  0
 23 18  1  0
M  END
>  <Molecule>  (233) 
CHEMBL1980253

>  <Standard Type>  (233) 
Ki

>  <Standard Relation>  (233) 
=

>  <Standard Value>  (233) 
100.0

>  <Standard Units>  (233) 
nM

>  <pChEMBL Value>  (233) 
7.0

>  <Comment>  (233) 
active

>  <Compound Key>  (233) 
SID103904220

>  <Assay>  (233) 
CHEMBL1963742

>  <Assay Description>  (233) 
PUBCHEM_BIOASSAY: Navigating the Kinome. (Class of assay: other) Panel member name: JAK3

>  <BAO Format>  (233) 
assay format

>  <Target>  (233) 
CHEMBL2148

>  <Target Pref. Name>  (233) 
Tyrosine-protein kinase JAK3

>  <Target Organism>  (233) 
Homo sapiens

>  <Target Type>  (233) 
SINGLE PROTEIN

>  <Document>  (233) 
CHEMBL1201862

>  <Source>  (233) 
PubChem BioAssays

>  <Max Phase>  (233) 
0

>  <#Ro5 Violations>  (233) 
0

>  <Molecular Weight>  (233) 
329.79

>  <Ligand Efficiency BEI>  (233) 
nan

>  <Ligand Efficiency LE>  (233) 
nan

>  <Ligand Efficiency LLE>  (233) 
nan

>  <Ligand Efficiency SEI>  (233) 
nan

>  <ALogP>  (233) 
3.26

>  <Assay Organism>  (233) 
nan

>  <Assay Tissue ChEMBL ID>  (233) 
nan

>  <Assay Tissue Name>  (233) 
nan

>  <Assay Cell Type>  (233) 
nan

>  <Assay Subcellular Fraction>  (233) 
nan

>  <Organism Tax ID>  (233) 
9606

>  <BAO Format ID>  (233) 
BAO_0000019

>  <Published Type>  (233) 
nan

>  <Published Relation>  (233) 
nan

>  <Published Value>  (233) 
nan

>  <Published Units>  (233) 
nan

>  <Canonical Smiles>  (233) 
Clc1cc(nc(NC2CCOCC2)n1)c3c[nH]c4ncccc34

>  <Data Validity Comment>  (233) 
nan

>  <Document Journal>  (233) 
nan

>  <Document Year>  (233) 
nan

>  <SRC ID>  (233) 
7

>  <UO Units>  (233) 
UO_0000065

>  <Potential Duplicate>  (233) 
False

>  <Class>  (233) 
1

$$$$

     RDKit          2D

 38 41  0  0  0  0  0  0  0  0999 V2000
    4.4938   -3.3551    0.0000 C   0  0  0  0  0  0  0  0  0  0  0  0
    3.4901   -4.4698    0.0000 C   0  0  0  0  0  0  0  0  0  0  0  0
    3.9536   -5.8964    0.0000 C   0  0  0  0  0  0  0  0  0  0  0  0
    2.0229   -4.1579    0.0000 C   0  0  0  0  0  0  0  0  0  0  0  0
    1.5593   -2.7313    0.0000 C   0  0  0  0  0  0  0  0  0  0  0  0
    2.5630   -1.6166    0.0000 O   0  0  0  0  0  0  0  0  0  0  0  0
    1.0192   -5.2726    0.0000 N   0  0  0  0  0  0  0  0  0  0  0  0
   -0.4481   -4.9608    0.0000 C   0  0  0  0  0  0  0  0  0  0  0  0
   -0.9116   -3.5342    0.0000 O   0  0  0  0  0  0  0  0  0  0  0  0
   -1.4518   -6.0755    0.0000 C   0  0  0  0  0  0  0  0  0  0  0  0
   -0.9882   -7.5021    0.0000 C   0  0  0  0  0  0  0  0  0  0  0  0
   -1.9919   -8.6168    0.0000 C   0  0  0  0  0  0  0  0  0  0  0  0
   -3.4591   -8.3049    0.0000 C   0  0  0  0  0  0  0  0  0  0  0  0
   -3.9227   -6.8783    0.0000 C   0  0  0  0  0  0  0  0  0  0  0  0
   -2.9190   -5.7636    0.0000 C   0  0  0  0  0  0  0  0  0  0  0  0
   -5.3899   -6.5665    0.0000 N   0  0  0  0  0  0  0  0  0  0  0  0
   -6.5046   -7.5702    0.0000 N   0  0  0  0  0  0  0  0  0  0  0  0
   -7.8037   -6.8202    0.0000 C   0  0  0  0  0  0  0  0  0  0  0  0
   -7.4918   -5.3529    0.0000 C   0  0  0  0  0  0  0  0  0  0  0  0
   -6.0000   -5.1962    0.0000 C   0  0  0  0  0  0  0  0  0  0  0  0
   -5.2500   -3.8971    0.0000 N   0  0  0  0  0  0  0  0  0  0  0  0
   -6.0000   -2.5981    0.0000 C   0  0  0  0  0  0  0  0  0  0  0  0
   -7.5000   -2.5981    0.0000 O   0  0  0  0  0  0  0  0  0  0  0  0
   -5.2500   -1.2990    0.0000 N   0  0  0  0  0  0  0  0  0  0  0  0
   -6.0000    0.0000    0.0000 C   0  0  0  0  0  0  0  0  0  0  0  0
   -7.5000    0.0000    0.0000 C   0  0  0  0  0  0  0  0  0  0  0  0
   -8.2500    1.2990    0.0000 C   0  0  0  0  0  0  0  0  0  0  0  0
   -7.5000    2.5981    0.0000 C   0  0  0  0  0  0  0  0  0  0  0  0
   -6.0000    2.5981    0.0000 C   0  0  0  0  0  0  0  0  0  0  0  0
   -5.2500    3.8971    0.0000 C   0  0  0  0  0  0  0  0  0  0  0  0
   -3.7500    3.8971    0.0000 C   0  0  0  0  0  0  0  0  0  0  0  0
   -3.0000    2.5981    0.0000 C   0  0  0  0  0  0  0  0  0  0  0  0
   -3.7500    1.2990    0.0000 C   0  0  0  0  0  0  0  0  0  0  0  0
   -5.2500    1.2990    0.0000 C   0  0  0  0  0  0  0  0  0  0  0  0
   -9.1740   -7.4303    0.0000 C   0  0  0  0  0  0  0  0  0  0  0  0
   -9.7841   -6.0600    0.0000 C   0  0  0  0  0  0  0  0  0  0  0  0
   -8.5639   -8.8006    0.0000 C   0  0  0  0  0  0  0  0  0  0  0  0
  -10.5443   -8.0404    0.0000 C   0  0  0  0  0  0  0  0  0  0  0  0
  1  2  1  0
  2  3  1  0
  2  4  1  0
  4  5  1  0
  5  6  1  0
  4  7  1  0
  7  8  1  0
  8  9  2  0
  8 10  1  0
 10 11  2  0
 11 12  1  0
 12 13  2  0
 13 14  1  0
 14 15  2  0
 14 16  1  0
 16 17  1  0
 17 18  2  0
 18 19  1  0
 19 20  2  0
 20 21  1  0
 21 22  1  0
 22 23  2  0
 22 24  1  0
 24 25  1  0
 25 26  2  0
 26 27  1  0
 27 28  2  0
 28 29  1  0
 29 30  2  0
 30 31  1  0
 31 32  2  0
 32 33  1  0
 33 34  2  0
 18 35  1  0
 35 36  1  0
 35 37  1  0
 35 38  1  0
 15 10  1  0
 20 16  1  0
 34 25  1  0
 34 29  1  0
M  END
>  <Molecule>  (234) 
CHEMBL1971223

>  <Standard Type>  (234) 
Ki

>  <Standard Relation>  (234) 
>

>  <Standard Value>  (234) 
5011.87

>  <Standard Units>  (234) 
nM

>  <pChEMBL Value>  (234) 
nan

>  <Comment>  (234) 
inactive

>  <Compound Key>  (234) 
SID103904827

>  <Assay>  (234) 
CHEMBL1963742

>  <Assay Description>  (234) 
PUBCHEM_BIOASSAY: Navigating the Kinome. (Class of assay: other) Panel member name: JAK3

>  <BAO Format>  (234) 
assay format

>  <Target>  (234) 
CHEMBL2148

>  <Target Pref. Name>  (234) 
Tyrosine-protein kinase JAK3

>  <Target Organism>  (234) 
Homo sapiens

>  <Target Type>  (234) 
SINGLE PROTEIN

>  <Document>  (234) 
CHEMBL1201862

>  <Source>  (234) 
PubChem BioAssays

>  <Max Phase>  (234) 
0

>  <#Ro5 Violations>  (234) 
2

>  <Molecular Weight>  (234) 
513.64

>  <Ligand Efficiency BEI>  (234) 
nan

>  <Ligand Efficiency LE>  (234) 
nan

>  <Ligand Efficiency LLE>  (234) 
nan

>  <Ligand Efficiency SEI>  (234) 
nan

>  <ALogP>  (234) 
5.71

>  <Assay Organism>  (234) 
nan

>  <Assay Tissue ChEMBL ID>  (234) 
nan

>  <Assay Tissue Name>  (234) 
nan

>  <Assay Cell Type>  (234) 
nan

>  <Assay Subcellular Fraction>  (234) 
nan

>  <Organism Tax ID>  (234) 
9606

>  <BAO Format ID>  (234) 
BAO_0000019

>  <Published Type>  (234) 
nan

>  <Published Relation>  (234) 
nan

>  <Published Value>  (234) 
nan

>  <Published Units>  (234) 
nan

>  <Canonical Smiles>  (234) 
CC(C)C(CO)NC(=O)c1cccc(c1)n2nc(cc2NC(=O)Nc3cccc4ccccc34)C(C)(C)C

>  <Data Validity Comment>  (234) 
nan

>  <Document Journal>  (234) 
nan

>  <Document Year>  (234) 
nan

>  <SRC ID>  (234) 
7

>  <UO Units>  (234) 
UO_0000065

>  <Potential Duplicate>  (234) 
False

>  <Class>  (234) 
0

$$$$

     RDKit          2D

 28 30  0  0  0  0  0  0  0  0999 V2000
    4.5000    0.0000    0.0000 F   0  0  0  0  0  0  0  0  0  0  0  0
    3.0000    0.0000    0.0000 C   0  0  0  0  0  0  0  0  0  0  0  0
    3.0000   -1.5000    0.0000 F   0  0  0  0  0  0  0  0  0  0  0  0
    3.0000    1.5000    0.0000 F   0  0  0  0  0  0  0  0  0  0  0  0
    1.5000    0.0000    0.0000 C   0  0  0  0  0  0  0  0  0  0  0  0
    0.7500   -1.2990    0.0000 C   0  0  0  0  0  0  0  0  0  0  0  0
   -0.7500   -1.2990    0.0000 C   0  0  0  0  0  0  0  0  0  0  0  0
   -1.5000    0.0000    0.0000 C   0  0  0  0  0  0  0  0  0  0  0  0
   -3.0000    0.0000    0.0000 C   0  0  0  0  0  0  0  0  0  0  0  0
   -3.7500   -1.2990    0.0000 N   0  0  0  0  0  0  0  0  0  0  0  0
   -5.2500   -1.2990    0.0000 C   0  0  0  0  0  0  0  0  0  0  0  0
   -6.0000    0.0000    0.0000 O   0  0  0  0  0  0  0  0  0  0  0  0
   -6.0000   -2.5981    0.0000 N   0  0  0  0  0  0  0  0  0  0  0  0
   -7.5000   -2.5981    0.0000 C   0  0  0  0  0  0  0  0  0  0  0  0
   -8.2500   -1.2990    0.0000 C   0  0  0  0  0  0  0  0  0  0  0  0
   -9.7500   -1.2990    0.0000 C   0  0  0  0  0  0  0  0  0  0  0  0
  -10.5000   -2.5981    0.0000 C   0  0  0  0  0  0  0  0  0  0  0  0
   -9.7500   -3.8971    0.0000 C   0  0  0  0  0  0  0  0  0  0  0  0
   -8.2500   -3.8971    0.0000 N   0  0  0  0  0  0  0  0  0  0  0  0
  -10.5000   -5.1962    0.0000 C   0  0  0  0  0  0  0  0  0  0  0  0
  -11.2500   -6.4952    0.0000 F   0  0  0  0  0  0  0  0  0  0  0  0
  -11.7990   -4.4462    0.0000 F   0  0  0  0  0  0  0  0  0  0  0  0
   -9.2010   -5.9462    0.0000 F   0  0  0  0  0  0  0  0  0  0  0  0
   -3.7500    1.2990    0.0000 C   0  0  0  0  0  0  0  0  0  0  0  0
   -3.0000    2.5981    0.0000 C   0  0  0  0  0  0  0  0  0  0  0  0
   -1.5000    2.5981    0.0000 N   0  0  0  0  0  0  0  0  0  0  0  0
   -0.7500    1.2990    0.0000 C   0  0  0  0  0  0  0  0  0  0  0  0
    0.7500    1.2990    0.0000 C   0  0  0  0  0  0  0  0  0  0  0  0
  1  2  1  0
  2  3  1  0
  2  4  1  0
  2  5  1  0
  5  6  2  0
  6  7  1  0
  7  8  2  0
  8  9  1  0
  9 10  1  0
 10 11  1  0
 11 12  2  0
 11 13  1  0
 13 14  1  0
 14 15  2  0
 15 16  1  0
 16 17  2  0
 17 18  1  0
 18 19  2  0
 18 20  1  0
 20 21  1  0
 20 22  1  0
 20 23  1  0
  9 24  2  0
 24 25  1  0
 25 26  2  0
 26 27  1  0
 27 28  2  0
 28  5  1  0
 27  8  1  0
 19 14  1  0
M  END
>  <Molecule>  (235) 
CHEMBL1973483

>  <Standard Type>  (235) 
Ki

>  <Standard Relation>  (235) 
>

>  <Standard Value>  (235) 
1584.89

>  <Standard Units>  (235) 
nM

>  <pChEMBL Value>  (235) 
nan

>  <Comment>  (235) 
inactive

>  <Compound Key>  (235) 
SID103904898

>  <Assay>  (235) 
CHEMBL1963742

>  <Assay Description>  (235) 
PUBCHEM_BIOASSAY: Navigating the Kinome. (Class of assay: other) Panel member name: JAK3

>  <BAO Format>  (235) 
assay format

>  <Target>  (235) 
CHEMBL2148

>  <Target Pref. Name>  (235) 
Tyrosine-protein kinase JAK3

>  <Target Organism>  (235) 
Homo sapiens

>  <Target Type>  (235) 
SINGLE PROTEIN

>  <Document>  (235) 
CHEMBL1201862

>  <Source>  (235) 
PubChem BioAssays

>  <Max Phase>  (235) 
0

>  <#Ro5 Violations>  (235) 
1

>  <Molecular Weight>  (235) 
400.28

>  <Ligand Efficiency BEI>  (235) 
nan

>  <Ligand Efficiency LE>  (235) 
nan

>  <Ligand Efficiency LLE>  (235) 
nan

>  <Ligand Efficiency SEI>  (235) 
nan

>  <ALogP>  (235) 
5.31

>  <Assay Organism>  (235) 
nan

>  <Assay Tissue ChEMBL ID>  (235) 
nan

>  <Assay Tissue Name>  (235) 
nan

>  <Assay Cell Type>  (235) 
nan

>  <Assay Subcellular Fraction>  (235) 
nan

>  <Organism Tax ID>  (235) 
9606

>  <BAO Format ID>  (235) 
BAO_0000019

>  <Published Type>  (235) 
nan

>  <Published Relation>  (235) 
nan

>  <Published Value>  (235) 
nan

>  <Published Units>  (235) 
nan

>  <Canonical Smiles>  (235) 
FC(F)(F)c1ccc2c(NC(=O)Nc3cccc(n3)C(F)(F)F)ccnc2c1

>  <Data Validity Comment>  (235) 
nan

>  <Document Journal>  (235) 
nan

>  <Document Year>  (235) 
nan

>  <SRC ID>  (235) 
7

>  <UO Units>  (235) 
UO_0000065

>  <Potential Duplicate>  (235) 
False

>  <Class>  (235) 
0

$$$$

     RDKit          2D

 16 18  0  0  0  0  0  0  0  0999 V2000
   -7.2690    6.7389    0.0000 O   0  0  0  0  0  0  0  0  0  0  0  0
   -6.6589    5.3686    0.0000 C   0  0  0  0  0  0  0  0  0  0  0  0
   -5.1671    5.2118    0.0000 C   0  0  0  0  0  0  0  0  0  0  0  0
   -4.4171    3.9127    0.0000 C   0  0  0  0  0  0  0  0  0  0  0  0
   -2.9499    4.2246    0.0000 C   0  0  0  0  0  0  0  0  0  0  0  0
   -2.7931    5.7164    0.0000 O   0  0  0  0  0  0  0  0  0  0  0  0
   -4.1634    6.3265    0.0000 N   0  0  0  0  0  0  0  0  0  0  0  0
   -1.8351    3.2209    0.0000 C   0  0  0  0  0  0  0  0  0  0  0  0
   -0.4086    3.6844    0.0000 C   0  0  0  0  0  0  0  0  0  0  0  0
    0.7062    2.6807    0.0000 C   0  0  0  0  0  0  0  0  0  0  0  0
    0.3943    1.2135    0.0000 C   0  0  0  0  0  0  0  0  0  0  0  0
    1.2760    0.0000    0.0000 N   0  0  0  0  0  0  0  0  0  0  0  0
    0.3943   -1.2135    0.0000 N   0  0  0  0  0  0  0  0  0  0  0  0
   -1.0323   -0.7500    0.0000 C   0  0  0  0  0  0  0  0  0  0  0  0
   -1.0323    0.7500    0.0000 C   0  0  0  0  0  0  0  0  0  0  0  0
   -2.1470    1.7537    0.0000 C   0  0  0  0  0  0  0  0  0  0  0  0
  1  2  1  0
  2  3  1  0
  3  4  1  0
  4  5  2  0
  5  6  1  0
  6  7  1  0
  5  8  1  0
  8  9  2  0
  9 10  1  0
 10 11  2  0
 11 12  1  0
 12 13  1  0
 13 14  2  0
 14 15  1  0
 15 16  2  0
  7  3  2  0
 16  8  1  0
 15 11  1  0
M  END
>  <Molecule>  (236) 
CHEMBL1974617

>  <Standard Type>  (236) 
Ki

>  <Standard Relation>  (236) 
=

>  <Standard Value>  (236) 
100000.0

>  <Standard Units>  (236) 
nM

>  <pChEMBL Value>  (236) 
4.0

>  <Comment>  (236) 
active

>  <Compound Key>  (236) 
SID103904506

>  <Assay>  (236) 
CHEMBL1963742

>  <Assay Description>  (236) 
PUBCHEM_BIOASSAY: Navigating the Kinome. (Class of assay: other) Panel member name: JAK3

>  <BAO Format>  (236) 
assay format

>  <Target>  (236) 
CHEMBL2148

>  <Target Pref. Name>  (236) 
Tyrosine-protein kinase JAK3

>  <Target Organism>  (236) 
Homo sapiens

>  <Target Type>  (236) 
SINGLE PROTEIN

>  <Document>  (236) 
CHEMBL1201862

>  <Source>  (236) 
PubChem BioAssays

>  <Max Phase>  (236) 
0

>  <#Ro5 Violations>  (236) 
0

>  <Molecular Weight>  (236) 
215.21

>  <Ligand Efficiency BEI>  (236) 
nan

>  <Ligand Efficiency LE>  (236) 
nan

>  <Ligand Efficiency LLE>  (236) 
nan

>  <Ligand Efficiency SEI>  (236) 
nan

>  <ALogP>  (236) 
1.71

>  <Assay Organism>  (236) 
nan

>  <Assay Tissue ChEMBL ID>  (236) 
nan

>  <Assay Tissue Name>  (236) 
nan

>  <Assay Cell Type>  (236) 
nan

>  <Assay Subcellular Fraction>  (236) 
nan

>  <Organism Tax ID>  (236) 
9606

>  <BAO Format ID>  (236) 
BAO_0000019

>  <Published Type>  (236) 
nan

>  <Published Relation>  (236) 
nan

>  <Published Value>  (236) 
nan

>  <Published Units>  (236) 
nan

>  <Canonical Smiles>  (236) 
OCc1cc(on1)c2ccc3[nH]ncc3c2

>  <Data Validity Comment>  (236) 
nan

>  <Document Journal>  (236) 
nan

>  <Document Year>  (236) 
nan

>  <SRC ID>  (236) 
7

>  <UO Units>  (236) 
UO_0000065

>  <Potential Duplicate>  (236) 
False

>  <Class>  (236) 
1

$$$$

     RDKit          2D

 22 23  0  0  0  0  0  0  0  0999 V2000
    3.7500   -1.2990    0.0000 C   0  0  0  0  0  0  0  0  0  0  0  0
    3.0000    0.0000    0.0000 O   0  0  0  0  0  0  0  0  0  0  0  0
    1.5000    0.0000    0.0000 C   0  0  0  0  0  0  0  0  0  0  0  0
    0.7500   -1.2990    0.0000 C   0  0  0  0  0  0  0  0  0  0  0  0
   -0.7500   -1.2990    0.0000 C   0  0  0  0  0  0  0  0  0  0  0  0
   -1.5000   -2.5981    0.0000 C   0  0  0  0  0  0  0  0  0  0  0  0
   -1.5000    0.0000    0.0000 C   0  0  0  0  0  0  0  0  0  0  0  0
   -3.0000    0.0000    0.0000 Cl  0  0  0  0  0  0  0  0  0  0  0  0
   -0.7500    1.2990    0.0000 C   0  0  0  0  0  0  0  0  0  0  0  0
    0.7500    1.2990    0.0000 C   0  0  0  0  0  0  0  0  0  0  0  0
    1.5000    2.5981    0.0000 N   0  0  0  0  0  0  0  0  0  0  0  0
    3.0000    2.5981    0.0000 C   0  0  0  0  0  0  0  0  0  0  0  0
    3.7500    1.2990    0.0000 O   0  0  0  0  0  0  0  0  0  0  0  0
    3.7500    3.8971    0.0000 N   0  0  0  0  0  0  0  0  0  0  0  0
    5.2500    3.8971    0.0000 C   0  0  0  0  0  0  0  0  0  0  0  0
    6.0000    2.5981    0.0000 C   0  0  0  0  0  0  0  0  0  0  0  0
    7.5000    2.5981    0.0000 N   0  0  0  0  0  0  0  0  0  0  0  0
    8.2500    3.8971    0.0000 C   0  0  0  0  0  0  0  0  0  0  0  0
    7.5000    5.1962    0.0000 C   0  0  0  0  0  0  0  0  0  0  0  0
    6.0000    5.1962    0.0000 N   0  0  0  0  0  0  0  0  0  0  0  0
    9.7500    3.8971    0.0000 C   0  0  0  0  0  0  0  0  0  0  0  0
   11.2500    3.8971    0.0000 N   0  0  0  0  0  0  0  0  0  0  0  0
  1  2  1  0
  2  3  1  0
  3  4  2  0
  4  5  1  0
  5  6  1  0
  5  7  2  0
  7  8  1  0
  7  9  1  0
  9 10  2  0
 10 11  1  0
 11 12  1  0
 12 13  2  0
 12 14  1  0
 14 15  1  0
 15 16  2  0
 16 17  1  0
 17 18  2  0
 18 19  1  0
 19 20  2  0
 18 21  1  0
 21 22  3  0
 10  3  1  0
 20 15  1  0
M  END
>  <Molecule>  (237) 
CHEMBL1975233

>  <Standard Type>  (237) 
Ki

>  <Standard Relation>  (237) 
>

>  <Standard Value>  (237) 
1584.89

>  <Standard Units>  (237) 
nM

>  <pChEMBL Value>  (237) 
nan

>  <Comment>  (237) 
inactive

>  <Compound Key>  (237) 
SID103904892

>  <Assay>  (237) 
CHEMBL1963742

>  <Assay Description>  (237) 
PUBCHEM_BIOASSAY: Navigating the Kinome. (Class of assay: other) Panel member name: JAK3

>  <BAO Format>  (237) 
assay format

>  <Target>  (237) 
CHEMBL2148

>  <Target Pref. Name>  (237) 
Tyrosine-protein kinase JAK3

>  <Target Organism>  (237) 
Homo sapiens

>  <Target Type>  (237) 
SINGLE PROTEIN

>  <Document>  (237) 
CHEMBL1201862

>  <Source>  (237) 
PubChem BioAssays

>  <Max Phase>  (237) 
0

>  <#Ro5 Violations>  (237) 
0

>  <Molecular Weight>  (237) 
317.74

>  <Ligand Efficiency BEI>  (237) 
nan

>  <Ligand Efficiency LE>  (237) 
nan

>  <Ligand Efficiency LLE>  (237) 
nan

>  <Ligand Efficiency SEI>  (237) 
nan

>  <ALogP>  (237) 
2.96

>  <Assay Organism>  (237) 
nan

>  <Assay Tissue ChEMBL ID>  (237) 
nan

>  <Assay Tissue Name>  (237) 
nan

>  <Assay Cell Type>  (237) 
nan

>  <Assay Subcellular Fraction>  (237) 
nan

>  <Organism Tax ID>  (237) 
9606

>  <BAO Format ID>  (237) 
BAO_0000019

>  <Published Type>  (237) 
nan

>  <Published Relation>  (237) 
nan

>  <Published Value>  (237) 
nan

>  <Published Units>  (237) 
nan

>  <Canonical Smiles>  (237) 
COc1cc(C)c(Cl)cc1NC(=O)Nc2cnc(cn2)C#N

>  <Data Validity Comment>  (237) 
nan

>  <Document Journal>  (237) 
nan

>  <Document Year>  (237) 
nan

>  <SRC ID>  (237) 
7

>  <UO Units>  (237) 
UO_0000065

>  <Potential Duplicate>  (237) 
False

>  <Class>  (237) 
0

$$$$

     RDKit          2D

 34 39  0  0  0  0  0  0  0  0999 V2000
    3.0000    0.0000    0.0000 N   0  0  0  0  0  0  0  0  0  0  0  0
    1.5000    0.0000    0.0000 C   0  0  0  0  0  0  0  0  0  0  0  0
    0.7500   -1.2990    0.0000 N   0  0  0  0  0  0  0  0  0  0  0  0
   -0.7500   -1.2990    0.0000 C   0  0  0  0  0  0  0  0  0  0  0  0
   -1.5000    0.0000    0.0000 N   0  0  0  0  0  0  0  0  0  0  0  0
   -0.7500    1.2990    0.0000 C   0  0  0  0  0  0  0  0  0  0  0  0
    0.7500    1.2990    0.0000 C   0  0  0  0  0  0  0  0  0  0  0  0
    1.2135    2.7256    0.0000 C   0  0  0  0  0  0  0  0  0  0  0  0
   -0.0000    3.6073    0.0000 C   0  0  0  0  0  0  0  0  0  0  0  0
   -1.2135    2.7256    0.0000 N   0  0  0  0  0  0  0  0  0  0  0  0
   -2.6401    3.1891    0.0000 C   0  0  0  0  0  0  0  0  0  0  0  0
   -3.3211    4.5257    0.0000 C   0  0  0  0  0  0  0  0  0  0  0  0
   -4.6576    3.8447    0.0000 C   0  0  0  0  0  0  0  0  0  0  0  0
   -6.0842    4.3082    0.0000 C   0  0  0  0  0  0  0  0  0  0  0  0
   -6.3961    5.7754    0.0000 N   0  0  0  0  0  0  0  0  0  0  0  0
   -7.7664    6.3855    0.0000 C   0  0  0  0  0  0  0  0  0  0  0  0
   -7.6096    7.8773    0.0000 C   0  0  0  0  0  0  0  0  0  0  0  0
   -6.1424    8.1892    0.0000 C   0  0  0  0  0  0  0  0  0  0  0  0
   -5.3924    6.8901    0.0000 C   0  0  0  0  0  0  0  0  0  0  0  0
   -3.9766    2.5082    0.0000 C   0  0  0  0  0  0  0  0  0  0  0  0
    2.6401    3.1891    0.0000 C   0  0  0  0  0  0  0  0  0  0  0  0
    3.7548    2.1855    0.0000 C   0  0  0  0  0  0  0  0  0  0  0  0
    5.1814    2.6490    0.0000 C   0  0  0  0  0  0  0  0  0  0  0  0
    5.4933    4.1162    0.0000 C   0  0  0  0  0  0  0  0  0  0  0  0
    4.3786    5.1199    0.0000 C   0  0  0  0  0  0  0  0  0  0  0  0
    4.6904    6.5871    0.0000 O   0  0  0  0  0  0  0  0  0  0  0  0
    6.1170    7.0506    0.0000 C   0  0  0  0  0  0  0  0  0  0  0  0
    6.4289    8.5179    0.0000 C   0  0  0  0  0  0  0  0  0  0  0  0
    7.8555    8.9814    0.0000 C   0  0  0  0  0  0  0  0  0  0  0  0
    8.1673   10.4486    0.0000 C   0  0  0  0  0  0  0  0  0  0  0  0
    7.0526   11.4523    0.0000 C   0  0  0  0  0  0  0  0  0  0  0  0
    5.6260   10.9888    0.0000 C   0  0  0  0  0  0  0  0  0  0  0  0
    5.3142    9.5216    0.0000 C   0  0  0  0  0  0  0  0  0  0  0  0
    2.9520    4.6564    0.0000 C   0  0  0  0  0  0  0  0  0  0  0  0
  1  2  1  0
  2  3  2  0
  3  4  1  0
  4  5  2  0
  5  6  1  0
  6  7  2  0
  7  8  1  0
  8  9  2  0
  9 10  1  0
 10 11  1  0
 11 12  1  0
 12 13  1  0
 13 14  1  0
 14 15  1  0
 15 16  1  0
 16 17  1  0
 17 18  1  0
 18 19  1  0
 13 20  1  0
  8 21  1  0
 21 22  2  0
 22 23  1  0
 23 24  2  0
 24 25  1  0
 25 26  1  0
 26 27  1  0
 27 28  1  0
 28 29  2  0
 29 30  1  0
 30 31  2  0
 31 32  1  0
 32 33  2  0
 25 34  2  0
  7  2  1  0
 10  6  1  0
 20 11  1  0
 19 15  1  0
 34 21  1  0
 33 28  1  0
M  END
>  <Molecule>  (238) 
CHEMBL1988370

>  <Standard Type>  (238) 
Ki

>  <Standard Relation>  (238) 
>

>  <Standard Value>  (238) 
1584.89

>  <Standard Units>  (238) 
nM

>  <pChEMBL Value>  (238) 
nan

>  <Comment>  (238) 
inactive

>  <Compound Key>  (238) 
SID103904996

>  <Assay>  (238) 
CHEMBL1963742

>  <Assay Description>  (238) 
PUBCHEM_BIOASSAY: Navigating the Kinome. (Class of assay: other) Panel member name: JAK3

>  <BAO Format>  (238) 
assay format

>  <Target>  (238) 
CHEMBL2148

>  <Target Pref. Name>  (238) 
Tyrosine-protein kinase JAK3

>  <Target Organism>  (238) 
Homo sapiens

>  <Target Type>  (238) 
SINGLE PROTEIN

>  <Document>  (238) 
CHEMBL1201862

>  <Source>  (238) 
PubChem BioAssays

>  <Max Phase>  (238) 
0

>  <#Ro5 Violations>  (238) 
1

>  <Molecular Weight>  (238) 
453.59

>  <Ligand Efficiency BEI>  (238) 
nan

>  <Ligand Efficiency LE>  (238) 
nan

>  <Ligand Efficiency LLE>  (238) 
nan

>  <Ligand Efficiency SEI>  (238) 
nan

>  <ALogP>  (238) 
5.31

>  <Assay Organism>  (238) 
nan

>  <Assay Tissue ChEMBL ID>  (238) 
nan

>  <Assay Tissue Name>  (238) 
nan

>  <Assay Cell Type>  (238) 
nan

>  <Assay Subcellular Fraction>  (238) 
nan

>  <Organism Tax ID>  (238) 
9606

>  <BAO Format ID>  (238) 
BAO_0000019

>  <Published Type>  (238) 
nan

>  <Published Relation>  (238) 
nan

>  <Published Value>  (238) 
nan

>  <Published Units>  (238) 
nan

>  <Canonical Smiles>  (238) 
Nc1ncnc2c1c(cn2C3CC(CN4CCCC4)C3)c5cccc(OCc6ccccc6)c5

>  <Data Validity Comment>  (238) 
nan

>  <Document Journal>  (238) 
nan

>  <Document Year>  (238) 
nan

>  <SRC ID>  (238) 
7

>  <UO Units>  (238) 
UO_0000065

>  <Potential Duplicate>  (238) 
False

>  <Class>  (238) 
0

$$$$

     RDKit          2D

 26 27  0  0  0  0  0  0  0  0999 V2000
    5.2500   -1.2990    0.0000 C   0  0  0  0  0  0  0  0  0  0  0  0
    3.7500   -1.2990    0.0000 C   0  0  0  0  0  0  0  0  0  0  0  0
    3.0000    0.0000    0.0000 O   0  0  0  0  0  0  0  0  0  0  0  0
    1.5000    0.0000    0.0000 C   0  0  0  0  0  0  0  0  0  0  0  0
    0.7500   -1.2990    0.0000 N   0  0  0  0  0  0  0  0  0  0  0  0
   -0.7500   -1.2990    0.0000 C   0  0  0  0  0  0  0  0  0  0  0  0
   -1.5000    0.0000    0.0000 C   0  0  0  0  0  0  0  0  0  0  0  0
   -0.7500    1.2990    0.0000 C   0  0  0  0  0  0  0  0  0  0  0  0
   -1.5000    2.5981    0.0000 N   0  0  0  0  0  0  0  0  0  0  0  0
    0.7500    1.2990    0.0000 C   0  0  0  0  0  0  0  0  0  0  0  0
    1.5000    2.5981    0.0000 C   0  0  0  0  0  0  0  0  0  0  0  0
    2.2500    3.8971    0.0000 N   0  0  0  0  0  0  0  0  0  0  0  0
   -1.5000   -2.5981    0.0000 C   0  0  0  0  0  0  0  0  0  0  0  0
   -0.7500   -3.8971    0.0000 O   0  0  0  0  0  0  0  0  0  0  0  0
   -3.0000   -2.5981    0.0000 N   0  0  0  0  0  0  0  0  0  0  0  0
   -3.7500   -3.8971    0.0000 C   0  0  0  0  0  0  0  0  0  0  0  0
   -5.2500   -3.8971    0.0000 C   0  0  0  0  0  0  0  0  0  0  0  0
   -6.0000   -2.5981    0.0000 C   0  0  0  0  0  0  0  0  0  0  0  0
   -7.5000   -2.5981    0.0000 C   0  0  0  0  0  0  0  0  0  0  0  0
   -8.2500   -3.8971    0.0000 C   0  0  0  0  0  0  0  0  0  0  0  0
   -7.5000   -5.1962    0.0000 C   0  0  0  0  0  0  0  0  0  0  0  0
   -6.0000   -5.1962    0.0000 C   0  0  0  0  0  0  0  0  0  0  0  0
   -9.7500   -3.8971    0.0000 S   0  0  0  0  0  0  0  0  0  0  0  0
   -9.7500   -5.3971    0.0000 O   0  0  0  0  0  0  0  0  0  0  0  0
   -9.7500   -2.3971    0.0000 O   0  0  0  0  0  0  0  0  0  0  0  0
  -11.2500   -3.8971    0.0000 C   0  0  0  0  0  0  0  0  0  0  0  0
  1  2  1  0
  2  3  1  0
  3  4  1  0
  4  5  2  0
  5  6  1  0
  6  7  2  0
  7  8  1  0
  8  9  1  0
  8 10  2  0
 10 11  1  0
 11 12  3  0
  6 13  1  0
 13 14  2  0
 13 15  1  0
 15 16  1  0
 16 17  1  0
 17 18  2  0
 18 19  1  0
 19 20  2  0
 20 21  1  0
 21 22  2  0
 20 23  1  0
 23 24  2  0
 23 25  2  0
 23 26  1  0
 10  4  1  0
 22 17  1  0
M  END
>  <Molecule>  (239) 
CHEMBL424872

>  <Standard Type>  (239) 
Ki

>  <Standard Relation>  (239) 
>

>  <Standard Value>  (239) 
3981.07

>  <Standard Units>  (239) 
nM

>  <pChEMBL Value>  (239) 
nan

>  <Comment>  (239) 
inactive

>  <Compound Key>  (239) 
SID103905191

>  <Assay>  (239) 
CHEMBL1963742

>  <Assay Description>  (239) 
PUBCHEM_BIOASSAY: Navigating the Kinome. (Class of assay: other) Panel member name: JAK3

>  <BAO Format>  (239) 
assay format

>  <Target>  (239) 
CHEMBL2148

>  <Target Pref. Name>  (239) 
Tyrosine-protein kinase JAK3

>  <Target Organism>  (239) 
Homo sapiens

>  <Target Type>  (239) 
SINGLE PROTEIN

>  <Document>  (239) 
CHEMBL1201862

>  <Source>  (239) 
PubChem BioAssays

>  <Max Phase>  (239) 
0

>  <#Ro5 Violations>  (239) 
0

>  <Molecular Weight>  (239) 
374.42

>  <Ligand Efficiency BEI>  (239) 
nan

>  <Ligand Efficiency LE>  (239) 
nan

>  <Ligand Efficiency LLE>  (239) 
nan

>  <Ligand Efficiency SEI>  (239) 
nan

>  <ALogP>  (239) 
1.27

>  <Assay Organism>  (239) 
nan

>  <Assay Tissue ChEMBL ID>  (239) 
nan

>  <Assay Tissue Name>  (239) 
nan

>  <Assay Cell Type>  (239) 
nan

>  <Assay Subcellular Fraction>  (239) 
nan

>  <Organism Tax ID>  (239) 
9606

>  <BAO Format ID>  (239) 
BAO_0000019

>  <Published Type>  (239) 
nan

>  <Published Relation>  (239) 
nan

>  <Published Value>  (239) 
nan

>  <Published Units>  (239) 
nan

>  <Canonical Smiles>  (239) 
CCOc1nc(cc(N)c1C#N)C(=O)NCc2ccc(cc2)S(=O)(=O)C

>  <Data Validity Comment>  (239) 
nan

>  <Document Journal>  (239) 
nan

>  <Document Year>  (239) 
nan

>  <SRC ID>  (239) 
7

>  <UO Units>  (239) 
UO_0000065

>  <Potential Duplicate>  (239) 
False

>  <Class>  (239) 
0

$$$$

     RDKit          2D

 16 18  0  0  0  0  0  0  0  0999 V2000
    3.0000    0.0000    0.0000 N   0  0  0  0  0  0  0  0  0  0  0  0
    1.5000    0.0000    0.0000 C   0  0  0  0  0  0  0  0  0  0  0  0
    0.7500   -1.2990    0.0000 C   0  0  0  0  0  0  0  0  0  0  0  0
   -0.7500   -1.2990    0.0000 C   0  0  0  0  0  0  0  0  0  0  0  0
   -1.7537   -2.4138    0.0000 N   0  0  0  0  0  0  0  0  0  0  0  0
   -3.1240   -1.8037    0.0000 C   0  0  0  0  0  0  0  0  0  0  0  0
   -2.9672   -0.3119    0.0000 C   0  0  0  0  0  0  0  0  0  0  0  0
   -1.5000    0.0000    0.0000 N   0  0  0  0  0  0  0  0  0  0  0  0
   -0.7500    1.2990    0.0000 C   0  0  0  0  0  0  0  0  0  0  0  0
    0.7500    1.2990    0.0000 N   0  0  0  0  0  0  0  0  0  0  0  0
   -4.4231   -2.5537    0.0000 C   0  0  0  0  0  0  0  0  0  0  0  0
   -5.7221   -1.8037    0.0000 C   0  0  0  0  0  0  0  0  0  0  0  0
   -7.0211   -2.5537    0.0000 C   0  0  0  0  0  0  0  0  0  0  0  0
   -7.0211   -4.0537    0.0000 C   0  0  0  0  0  0  0  0  0  0  0  0
   -5.7221   -4.8037    0.0000 C   0  0  0  0  0  0  0  0  0  0  0  0
   -4.4231   -4.0537    0.0000 C   0  0  0  0  0  0  0  0  0  0  0  0
  1  2  1  0
  2  3  2  0
  3  4  1  0
  4  5  2  0
  5  6  1  0
  6  7  2  0
  7  8  1  0
  8  9  1  0
  9 10  2  0
  6 11  1  0
 11 12  2  0
 12 13  1  0
 13 14  2  0
 14 15  1  0
 15 16  2  0
 10  2  1  0
  8  4  1  0
 16 11  1  0
M  END
>  <Molecule>  (240) 
CHEMBL1972365

>  <Standard Type>  (240) 
Ki

>  <Standard Relation>  (240) 
>

>  <Standard Value>  (240) 
15848.93

>  <Standard Units>  (240) 
nM

>  <pChEMBL Value>  (240) 
nan

>  <Comment>  (240) 
inactive

>  <Compound Key>  (240) 
SID103905283

>  <Assay>  (240) 
CHEMBL1963742

>  <Assay Description>  (240) 
PUBCHEM_BIOASSAY: Navigating the Kinome. (Class of assay: other) Panel member name: JAK3

>  <BAO Format>  (240) 
assay format

>  <Target>  (240) 
CHEMBL2148

>  <Target Pref. Name>  (240) 
Tyrosine-protein kinase JAK3

>  <Target Organism>  (240) 
Homo sapiens

>  <Target Type>  (240) 
SINGLE PROTEIN

>  <Document>  (240) 
CHEMBL1201862

>  <Source>  (240) 
PubChem BioAssays

>  <Max Phase>  (240) 
0

>  <#Ro5 Violations>  (240) 
0

>  <Molecular Weight>  (240) 
210.24

>  <Ligand Efficiency BEI>  (240) 
nan

>  <Ligand Efficiency LE>  (240) 
nan

>  <Ligand Efficiency LLE>  (240) 
nan

>  <Ligand Efficiency SEI>  (240) 
nan

>  <ALogP>  (240) 
1.98

>  <Assay Organism>  (240) 
nan

>  <Assay Tissue ChEMBL ID>  (240) 
nan

>  <Assay Tissue Name>  (240) 
nan

>  <Assay Cell Type>  (240) 
nan

>  <Assay Subcellular Fraction>  (240) 
nan

>  <Organism Tax ID>  (240) 
9606

>  <BAO Format ID>  (240) 
BAO_0000019

>  <Published Type>  (240) 
nan

>  <Published Relation>  (240) 
nan

>  <Published Value>  (240) 
nan

>  <Published Units>  (240) 
nan

>  <Canonical Smiles>  (240) 
Nc1cc2nc(cn2cn1)c3ccccc3

>  <Data Validity Comment>  (240) 
nan

>  <Document Journal>  (240) 
nan

>  <Document Year>  (240) 
nan

>  <SRC ID>  (240) 
7

>  <UO Units>  (240) 
UO_0000065

>  <Potential Duplicate>  (240) 
False

>  <Class>  (240) 
0

$$$$

     RDKit          2D

 11 12  0  0  0  0  0  0  0  0999 V2000
    3.0000    0.0000    0.0000 Br  0  0  0  0  0  0  0  0  0  0  0  0
    1.5000    0.0000    0.0000 C   0  0  0  0  0  0  0  0  0  0  0  0
    0.7500   -1.2990    0.0000 C   0  0  0  0  0  0  0  0  0  0  0  0
   -0.7500   -1.2990    0.0000 C   0  0  0  0  0  0  0  0  0  0  0  0
   -1.5000    0.0000    0.0000 C   0  0  0  0  0  0  0  0  0  0  0  0
   -2.9672    0.3119    0.0000 N   0  0  0  0  0  0  0  0  0  0  0  0
   -3.1240    1.8037    0.0000 N   0  0  0  0  0  0  0  0  0  0  0  0
   -1.7537    2.4138    0.0000 C   0  0  0  0  0  0  0  0  0  0  0  0
   -1.4418    3.8810    0.0000 O   0  0  0  0  0  0  0  0  0  0  0  0
   -0.7500    1.2990    0.0000 C   0  0  0  0  0  0  0  0  0  0  0  0
    0.7500    1.2990    0.0000 C   0  0  0  0  0  0  0  0  0  0  0  0
  1  2  1  0
  2  3  2  0
  3  4  1  0
  4  5  2  0
  5  6  1  0
  6  7  1  0
  7  8  1  0
  8  9  2  0
  8 10  1  0
 10 11  2  0
 11  2  1  0
 10  5  1  0
M  END
>  <Molecule>  (241) 
CHEMBL2001613

>  <Standard Type>  (241) 
Ki

>  <Standard Relation>  (241) 
=

>  <Standard Value>  (241) 
25118.86

>  <Standard Units>  (241) 
nM

>  <pChEMBL Value>  (241) 
4.6

>  <Comment>  (241) 
active

>  <Compound Key>  (241) 
SID103904442

>  <Assay>  (241) 
CHEMBL1963742

>  <Assay Description>  (241) 
PUBCHEM_BIOASSAY: Navigating the Kinome. (Class of assay: other) Panel member name: JAK3

>  <BAO Format>  (241) 
assay format

>  <Target>  (241) 
CHEMBL2148

>  <Target Pref. Name>  (241) 
Tyrosine-protein kinase JAK3

>  <Target Organism>  (241) 
Homo sapiens

>  <Target Type>  (241) 
SINGLE PROTEIN

>  <Document>  (241) 
CHEMBL1201862

>  <Source>  (241) 
PubChem BioAssays

>  <Max Phase>  (241) 
0

>  <#Ro5 Violations>  (241) 
0

>  <Molecular Weight>  (241) 
213.03

>  <Ligand Efficiency BEI>  (241) 
nan

>  <Ligand Efficiency LE>  (241) 
nan

>  <Ligand Efficiency LLE>  (241) 
nan

>  <Ligand Efficiency SEI>  (241) 
nan

>  <ALogP>  (241) 
1.62

>  <Assay Organism>  (241) 
nan

>  <Assay Tissue ChEMBL ID>  (241) 
nan

>  <Assay Tissue Name>  (241) 
nan

>  <Assay Cell Type>  (241) 
nan

>  <Assay Subcellular Fraction>  (241) 
nan

>  <Organism Tax ID>  (241) 
9606

>  <BAO Format ID>  (241) 
BAO_0000019

>  <Published Type>  (241) 
nan

>  <Published Relation>  (241) 
nan

>  <Published Value>  (241) 
nan

>  <Published Units>  (241) 
nan

>  <Canonical Smiles>  (241) 
Brc1ccc2NNC(=O)c2c1

>  <Data Validity Comment>  (241) 
nan

>  <Document Journal>  (241) 
nan

>  <Document Year>  (241) 
nan

>  <SRC ID>  (241) 
7

>  <UO Units>  (241) 
UO_0000065

>  <Potential Duplicate>  (241) 
False

>  <Class>  (241) 
1

$$$$

     RDKit          2D

 22 25  0  0  0  0  0  0  0  0999 V2000
    3.7500   -1.2990    0.0000 C   0  0  0  0  0  0  0  0  0  0  0  0
    3.0000    0.0000    0.0000 O   0  0  0  0  0  0  0  0  0  0  0  0
    1.5000    0.0000    0.0000 C   0  0  0  0  0  0  0  0  0  0  0  0
    0.7500   -1.2990    0.0000 C   0  0  0  0  0  0  0  0  0  0  0  0
   -0.7500   -1.2990    0.0000 C   0  0  0  0  0  0  0  0  0  0  0  0
   -1.5000    0.0000    0.0000 C   0  0  0  0  0  0  0  0  0  0  0  0
   -2.9672    0.3119    0.0000 N   0  0  0  0  0  0  0  0  0  0  0  0
   -3.1240    1.8037    0.0000 C   0  0  0  0  0  0  0  0  0  0  0  0
   -1.7537    2.4138    0.0000 C   0  0  0  0  0  0  0  0  0  0  0  0
   -1.4418    3.8810    0.0000 C   0  0  0  0  0  0  0  0  0  0  0  0
   -2.5565    4.8847    0.0000 C   0  0  0  0  0  0  0  0  0  0  0  0
   -4.0238    4.5728    0.0000 C   0  0  0  0  0  0  0  0  0  0  0  0
   -4.6339    3.2025    0.0000 O   0  0  0  0  0  0  0  0  0  0  0  0
   -4.7738    5.8718    0.0000 N   0  0  0  0  0  0  0  0  0  0  0  0
   -3.7701    6.9866    0.0000 C   0  0  0  0  0  0  0  0  0  0  0  0
   -3.9269    8.4783    0.0000 C   0  0  0  0  0  0  0  0  0  0  0  0
   -2.7133    9.3600    0.0000 C   0  0  0  0  0  0  0  0  0  0  0  0
   -1.3430    8.7499    0.0000 C   0  0  0  0  0  0  0  0  0  0  0  0
   -1.1862    7.2581    0.0000 C   0  0  0  0  0  0  0  0  0  0  0  0
   -2.3998    6.3765    0.0000 C   0  0  0  0  0  0  0  0  0  0  0  0
   -0.7500    1.2990    0.0000 C   0  0  0  0  0  0  0  0  0  0  0  0
    0.7500    1.2990    0.0000 C   0  0  0  0  0  0  0  0  0  0  0  0
  1  2  1  0
  2  3  1  0
  3  4  2  0
  4  5  1  0
  5  6  2  0
  6  7  1  0
  7  8  1  0
  8  9  2  0
  9 10  1  0
 10 11  2  3
 11 12  1  0
 12 13  2  0
 12 14  1  0
 14 15  1  0
 15 16  2  0
 16 17  1  0
 17 18  2  0
 18 19  1  0
 19 20  2  0
  9 21  1  0
 21 22  2  0
 22  3  1  0
 21  6  1  0
 20 11  1  0
 20 15  1  0
M  END
>  <Molecule>  (242) 
CHEMBL1997275

>  <Standard Type>  (242) 
Ki

>  <Standard Relation>  (242) 
>

>  <Standard Value>  (242) 
5011.87

>  <Standard Units>  (242) 
nM

>  <pChEMBL Value>  (242) 
nan

>  <Comment>  (242) 
inactive

>  <Compound Key>  (242) 
SID103905110

>  <Assay>  (242) 
CHEMBL1963742

>  <Assay Description>  (242) 
PUBCHEM_BIOASSAY: Navigating the Kinome. (Class of assay: other) Panel member name: JAK3

>  <BAO Format>  (242) 
assay format

>  <Target>  (242) 
CHEMBL2148

>  <Target Pref. Name>  (242) 
Tyrosine-protein kinase JAK3

>  <Target Organism>  (242) 
Homo sapiens

>  <Target Type>  (242) 
SINGLE PROTEIN

>  <Document>  (242) 
CHEMBL1201862

>  <Source>  (242) 
PubChem BioAssays

>  <Max Phase>  (242) 
0

>  <#Ro5 Violations>  (242) 
0

>  <Molecular Weight>  (242) 
290.32

>  <Ligand Efficiency BEI>  (242) 
nan

>  <Ligand Efficiency LE>  (242) 
nan

>  <Ligand Efficiency LLE>  (242) 
nan

>  <Ligand Efficiency SEI>  (242) 
nan

>  <ALogP>  (242) 
3.67

>  <Assay Organism>  (242) 
nan

>  <Assay Tissue ChEMBL ID>  (242) 
nan

>  <Assay Tissue Name>  (242) 
nan

>  <Assay Cell Type>  (242) 
nan

>  <Assay Subcellular Fraction>  (242) 
nan

>  <Organism Tax ID>  (242) 
9606

>  <BAO Format ID>  (242) 
BAO_0000019

>  <Published Type>  (242) 
nan

>  <Published Relation>  (242) 
nan

>  <Published Value>  (242) 
nan

>  <Published Units>  (242) 
nan

>  <Canonical Smiles>  (242) 
COc1ccc2[nH]cc(C=C3C(=O)Nc4ccccc34)c2c1

>  <Data Validity Comment>  (242) 
nan

>  <Document Journal>  (242) 
nan

>  <Document Year>  (242) 
nan

>  <SRC ID>  (242) 
7

>  <UO Units>  (242) 
UO_0000065

>  <Potential Duplicate>  (242) 
False

>  <Class>  (242) 
0

$$$$

     RDKit          2D

 18 20  0  0  0  0  0  0  0  0999 V2000
    3.7500   -1.2990    0.0000 C   0  0  0  0  0  0  0  0  0  0  0  0
    3.0000    0.0000    0.0000 S   0  0  0  0  0  0  0  0  0  0  0  0
    1.5000    0.0000    0.0000 C   0  0  0  0  0  0  0  0  0  0  0  0
    0.7500   -1.2990    0.0000 C   0  0  0  0  0  0  0  0  0  0  0  0
   -0.7500   -1.2990    0.0000 C   0  0  0  0  0  0  0  0  0  0  0  0
   -1.5000    0.0000    0.0000 C   0  0  0  0  0  0  0  0  0  0  0  0
   -3.0000    0.0000    0.0000 N   0  0  0  0  0  0  0  0  0  0  0  0
   -3.7500    1.2990    0.0000 C   0  0  0  0  0  0  0  0  0  0  0  0
   -5.2500    1.2990    0.0000 C   0  0  0  0  0  0  0  0  0  0  0  0
   -6.0000    0.0000    0.0000 O   0  0  0  0  0  0  0  0  0  0  0  0
   -6.0000    2.5981    0.0000 N   0  0  0  0  0  0  0  0  0  0  0  0
   -5.2500    3.8971    0.0000 C   0  0  0  0  0  0  0  0  0  0  0  0
   -3.7500    3.8971    0.0000 C   0  0  0  0  0  0  0  0  0  0  0  0
   -3.0000    2.5981    0.0000 C   0  0  0  0  0  0  0  0  0  0  0  0
   -1.5000    2.5981    0.0000 C   0  0  0  0  0  0  0  0  0  0  0  0
   -0.7500    3.8971    0.0000 Cl  0  0  0  0  0  0  0  0  0  0  0  0
   -0.7500    1.2990    0.0000 C   0  0  0  0  0  0  0  0  0  0  0  0
    0.7500    1.2990    0.0000 C   0  0  0  0  0  0  0  0  0  0  0  0
  1  2  1  0
  2  3  1  0
  3  4  2  0
  4  5  1  0
  5  6  2  0
  6  7  1  0
  7  8  2  0
  8  9  1  0
  9 10  2  0
  9 11  1  0
 11 12  1  0
 12 13  1  0
 13 14  1  0
 14 15  2  0
 15 16  1  0
 15 17  1  0
 17 18  2  0
 18  3  1  0
 17  6  1  0
 14  8  1  0
M  END
>  <Molecule>  (243) 
CHEMBL1985074

>  <Standard Type>  (243) 
Ki

>  <Standard Relation>  (243) 
>

>  <Standard Value>  (243) 
1584.89

>  <Standard Units>  (243) 
nM

>  <pChEMBL Value>  (243) 
nan

>  <Comment>  (243) 
inactive

>  <Compound Key>  (243) 
SID103905287

>  <Assay>  (243) 
CHEMBL1963742

>  <Assay Description>  (243) 
PUBCHEM_BIOASSAY: Navigating the Kinome. (Class of assay: other) Panel member name: JAK3

>  <BAO Format>  (243) 
assay format

>  <Target>  (243) 
CHEMBL2148

>  <Target Pref. Name>  (243) 
Tyrosine-protein kinase JAK3

>  <Target Organism>  (243) 
Homo sapiens

>  <Target Type>  (243) 
SINGLE PROTEIN

>  <Document>  (243) 
CHEMBL1201862

>  <Source>  (243) 
PubChem BioAssays

>  <Max Phase>  (243) 
0

>  <#Ro5 Violations>  (243) 
0

>  <Molecular Weight>  (243) 
278.76

>  <Ligand Efficiency BEI>  (243) 
nan

>  <Ligand Efficiency LE>  (243) 
nan

>  <Ligand Efficiency LLE>  (243) 
nan

>  <Ligand Efficiency SEI>  (243) 
nan

>  <ALogP>  (243) 
2.9

>  <Assay Organism>  (243) 
nan

>  <Assay Tissue ChEMBL ID>  (243) 
nan

>  <Assay Tissue Name>  (243) 
nan

>  <Assay Cell Type>  (243) 
nan

>  <Assay Subcellular Fraction>  (243) 
nan

>  <Organism Tax ID>  (243) 
9606

>  <BAO Format ID>  (243) 
BAO_0000019

>  <Published Type>  (243) 
nan

>  <Published Relation>  (243) 
nan

>  <Published Value>  (243) 
nan

>  <Published Units>  (243) 
nan

>  <Canonical Smiles>  (243) 
CSc1ccc2nc3C(=O)NCCc3c(Cl)c2c1

>  <Data Validity Comment>  (243) 
nan

>  <Document Journal>  (243) 
nan

>  <Document Year>  (243) 
nan

>  <SRC ID>  (243) 
7

>  <UO Units>  (243) 
UO_0000065

>  <Potential Duplicate>  (243) 
False

>  <Class>  (243) 
0

$$$$

     RDKit          2D

 33 36  0  0  0  0  0  0  0  0999 V2000
  -12.7500   -9.0933    0.0000 N   0  0  0  0  0  0  0  0  0  0  0  0
  -13.5000   -7.7942    0.0000 C   0  0  0  0  0  0  0  0  0  0  0  0
  -12.7500   -6.4952    0.0000 C   0  0  0  0  0  0  0  0  0  0  0  0
  -13.5000   -5.1962    0.0000 N   0  0  0  0  0  0  0  0  0  0  0  0
  -12.7500   -3.8971    0.0000 S   0  0  0  0  0  0  0  0  0  0  0  0
  -14.0490   -3.1471    0.0000 O   0  0  0  0  0  0  0  0  0  0  0  0
  -11.4510   -4.6471    0.0000 O   0  0  0  0  0  0  0  0  0  0  0  0
  -12.0000   -2.5981    0.0000 C   0  0  0  0  0  0  0  0  0  0  0  0
  -12.7500   -1.2990    0.0000 C   0  0  0  0  0  0  0  0  0  0  0  0
  -12.0000    0.0000    0.0000 C   0  0  0  0  0  0  0  0  0  0  0  0
  -10.5000    0.0000    0.0000 C   0  0  0  0  0  0  0  0  0  0  0  0
   -9.7500   -1.2990    0.0000 C   0  0  0  0  0  0  0  0  0  0  0  0
  -10.5000   -2.5981    0.0000 C   0  0  0  0  0  0  0  0  0  0  0  0
   -8.2500   -1.2990    0.0000 C   0  0  0  0  0  0  0  0  0  0  0  0
   -7.5000    0.0000    0.0000 O   0  0  0  0  0  0  0  0  0  0  0  0
   -7.5000   -2.5981    0.0000 N   0  0  0  0  0  0  0  0  0  0  0  0
   -6.0000   -2.5981    0.0000 C   0  0  0  0  0  0  0  0  0  0  0  0
   -5.2500   -3.8971    0.0000 C   0  0  0  0  0  0  0  0  0  0  0  0
   -3.7500   -3.8971    0.0000 C   0  0  0  0  0  0  0  0  0  0  0  0
   -3.0000   -2.5981    0.0000 C   0  0  0  0  0  0  0  0  0  0  0  0
   -3.7500   -1.2990    0.0000 C   0  0  0  0  0  0  0  0  0  0  0  0
   -5.2500   -1.2990    0.0000 C   0  0  0  0  0  0  0  0  0  0  0  0
   -1.5000   -2.5981    0.0000 C   0  0  0  0  0  0  0  0  0  0  0  0
   -0.7500   -3.8971    0.0000 N   0  0  0  0  0  0  0  0  0  0  0  0
    0.7500   -3.8971    0.0000 N   0  0  0  0  0  0  0  0  0  0  0  0
    1.5000   -2.5981    0.0000 C   0  0  0  0  0  0  0  0  0  0  0  0
    3.0000   -2.5981    0.0000 O   0  0  0  0  0  0  0  0  0  0  0  0
    0.7500   -1.2990    0.0000 C   0  0  0  0  0  0  0  0  0  0  0  0
    1.5000    0.0000    0.0000 C   0  0  0  0  0  0  0  0  0  0  0  0
    0.7500    1.2990    0.0000 C   0  0  0  0  0  0  0  0  0  0  0  0
   -0.7500    1.2990    0.0000 C   0  0  0  0  0  0  0  0  0  0  0  0
   -1.5000    0.0000    0.0000 C   0  0  0  0  0  0  0  0  0  0  0  0
   -0.7500   -1.2990    0.0000 C   0  0  0  0  0  0  0  0  0  0  0  0
  1  2  1  0
  2  3  1  0
  3  4  1  0
  4  5  1  0
  5  6  2  0
  5  7  2  0
  5  8  1  0
  8  9  2  0
  9 10  1  0
 10 11  2  0
 11 12  1  0
 12 13  2  0
 12 14  1  0
 14 15  2  0
 14 16  1  0
 16 17  1  0
 17 18  2  0
 18 19  1  0
 19 20  2  0
 20 21  1  0
 21 22  2  0
 20 23  1  0
 23 24  2  0
 24 25  1  0
 25 26  1  0
 26 27  2  0
 26 28  1  0
 28 29  2  0
 29 30  1  0
 30 31  2  0
 31 32  1  0
 32 33  2  0
 13  8  1  0
 22 17  1  0
 33 23  1  0
 33 28  1  0
M  END
>  <Molecule>  (244) 
CHEMBL2000481

>  <Standard Type>  (244) 
Ki

>  <Standard Relation>  (244) 
>

>  <Standard Value>  (244) 
1584.89

>  <Standard Units>  (244) 
nM

>  <pChEMBL Value>  (244) 
nan

>  <Comment>  (244) 
inactive

>  <Compound Key>  (244) 
SID103905096

>  <Assay>  (244) 
CHEMBL1963742

>  <Assay Description>  (244) 
PUBCHEM_BIOASSAY: Navigating the Kinome. (Class of assay: other) Panel member name: JAK3

>  <BAO Format>  (244) 
assay format

>  <Target>  (244) 
CHEMBL2148

>  <Target Pref. Name>  (244) 
Tyrosine-protein kinase JAK3

>  <Target Organism>  (244) 
Homo sapiens

>  <Target Type>  (244) 
SINGLE PROTEIN

>  <Document>  (244) 
CHEMBL1201862

>  <Source>  (244) 
PubChem BioAssays

>  <Max Phase>  (244) 
0

>  <#Ro5 Violations>  (244) 
0

>  <Molecular Weight>  (244) 
463.52

>  <Ligand Efficiency BEI>  (244) 
nan

>  <Ligand Efficiency LE>  (244) 
nan

>  <Ligand Efficiency LLE>  (244) 
nan

>  <Ligand Efficiency SEI>  (244) 
nan

>  <ALogP>  (244) 
2.08

>  <Assay Organism>  (244) 
nan

>  <Assay Tissue ChEMBL ID>  (244) 
nan

>  <Assay Tissue Name>  (244) 
nan

>  <Assay Cell Type>  (244) 
nan

>  <Assay Subcellular Fraction>  (244) 
nan

>  <Organism Tax ID>  (244) 
9606

>  <BAO Format ID>  (244) 
BAO_0000019

>  <Published Type>  (244) 
nan

>  <Published Relation>  (244) 
nan

>  <Published Value>  (244) 
nan

>  <Published Units>  (244) 
nan

>  <Canonical Smiles>  (244) 
NCCNS(=O)(=O)c1cccc(c1)C(=O)Nc2ccc(cc2)C3=NNC(=O)c4ccccc34

>  <Data Validity Comment>  (244) 
nan

>  <Document Journal>  (244) 
nan

>  <Document Year>  (244) 
nan

>  <SRC ID>  (244) 
7

>  <UO Units>  (244) 
UO_0000065

>  <Potential Duplicate>  (244) 
False

>  <Class>  (244) 
0

$$$$

     RDKit          2D

 21 23  0  0  0  0  0  0  0  0999 V2000
   -2.6401   -5.7872    0.0000 C   0  0  0  0  0  0  0  0  0  0  0  0
   -1.2135   -5.3237    0.0000 N   0  0  0  0  0  0  0  0  0  0  0  0
   -0.0000   -6.2054    0.0000 N   0  0  0  0  0  0  0  0  0  0  0  0
    1.2135   -5.3237    0.0000 C   0  0  0  0  0  0  0  0  0  0  0  0
    0.7500   -3.8971    0.0000 C   0  0  0  0  0  0  0  0  0  0  0  0
    1.5000   -2.5981    0.0000 C   0  0  0  0  0  0  0  0  0  0  0  0
    3.0000   -2.5981    0.0000 O   0  0  0  0  0  0  0  0  0  0  0  0
    0.7500   -1.2990    0.0000 C   0  0  0  0  0  0  0  0  0  0  0  0
    1.5000    0.0000    0.0000 C   0  0  0  0  0  0  0  0  0  0  0  0
    0.7500    1.2990    0.0000 C   0  0  0  0  0  0  0  0  0  0  0  0
    1.5000    2.5981    0.0000 Cl  0  0  0  0  0  0  0  0  0  0  0  0
   -0.7500    1.2990    0.0000 C   0  0  0  0  0  0  0  0  0  0  0  0
   -1.5000    0.0000    0.0000 C   0  0  0  0  0  0  0  0  0  0  0  0
   -0.7500   -1.2990    0.0000 C   0  0  0  0  0  0  0  0  0  0  0  0
   -1.5000   -2.5981    0.0000 N   0  0  0  0  0  0  0  0  0  0  0  0
   -3.0000   -2.5981    0.0000 O   0  0  0  0  0  0  0  0  0  0  0  0
   -0.7500   -3.8971    0.0000 C   0  0  0  0  0  0  0  0  0  0  0  0
    2.6401   -5.7872    0.0000 C   0  0  0  0  0  0  0  0  0  0  0  0
    4.0667   -6.2508    0.0000 F   0  0  0  0  0  0  0  0  0  0  0  0
    2.1766   -7.2138    0.0000 F   0  0  0  0  0  0  0  0  0  0  0  0
    3.1036   -4.3606    0.0000 F   0  0  0  0  0  0  0  0  0  0  0  0
  1  2  1  0
  2  3  1  0
  3  4  2  0
  4  5  1  0
  5  6  1  0
  6  7  2  0
  6  8  1  0
  8  9  2  0
  9 10  1  0
 10 11  1  0
 10 12  2  0
 12 13  1  0
 13 14  2  0
 14 15  1  0
 15 16  1  0
 15 17  1  0
  4 18  1  0
 18 19  1  0
 18 20  1  0
 18 21  1  0
 17  2  1  0
 17  5  2  0
 14  8  1  0
M  END
>  <Molecule>  (245) 
CHEMBL207400

>  <Standard Type>  (245) 
Ki

>  <Standard Relation>  (245) 
>

>  <Standard Value>  (245) 
1584.89

>  <Standard Units>  (245) 
nM

>  <pChEMBL Value>  (245) 
nan

>  <Comment>  (245) 
inactive

>  <Compound Key>  (245) 
SID103905391

>  <Assay>  (245) 
CHEMBL1963742

>  <Assay Description>  (245) 
PUBCHEM_BIOASSAY: Navigating the Kinome. (Class of assay: other) Panel member name: JAK3

>  <BAO Format>  (245) 
assay format

>  <Target>  (245) 
CHEMBL2148

>  <Target Pref. Name>  (245) 
Tyrosine-protein kinase JAK3

>  <Target Organism>  (245) 
Homo sapiens

>  <Target Type>  (245) 
SINGLE PROTEIN

>  <Document>  (245) 
CHEMBL1201862

>  <Source>  (245) 
PubChem BioAssays

>  <Max Phase>  (245) 
0

>  <#Ro5 Violations>  (245) 
0

>  <Molecular Weight>  (245) 
317.65

>  <Ligand Efficiency BEI>  (245) 
nan

>  <Ligand Efficiency LE>  (245) 
nan

>  <Ligand Efficiency LLE>  (245) 
nan

>  <Ligand Efficiency SEI>  (245) 
nan

>  <ALogP>  (245) 
2.8

>  <Assay Organism>  (245) 
nan

>  <Assay Tissue ChEMBL ID>  (245) 
nan

>  <Assay Tissue Name>  (245) 
nan

>  <Assay Cell Type>  (245) 
nan

>  <Assay Subcellular Fraction>  (245) 
nan

>  <Organism Tax ID>  (245) 
9606

>  <BAO Format ID>  (245) 
BAO_0000019

>  <Published Type>  (245) 
nan

>  <Published Relation>  (245) 
nan

>  <Published Value>  (245) 
nan

>  <Published Units>  (245) 
nan

>  <Canonical Smiles>  (245) 
Cn1nc(c2C(=O)c3cc(Cl)ccc3N(O)c12)C(F)(F)F

>  <Data Validity Comment>  (245) 
nan

>  <Document Journal>  (245) 
nan

>  <Document Year>  (245) 
nan

>  <SRC ID>  (245) 
7

>  <UO Units>  (245) 
UO_0000065

>  <Potential Duplicate>  (245) 
False

>  <Class>  (245) 
0

$$$$

     RDKit          2D

 24 27  0  0  0  0  0  0  0  0999 V2000
   -4.2892   -5.3245    0.0000 C   0  0  0  0  0  0  0  0  0  0  0  0
   -5.1709   -4.1110    0.0000 O   0  0  0  0  0  0  0  0  0  0  0  0
   -4.5608   -2.7406    0.0000 C   0  0  0  0  0  0  0  0  0  0  0  0
   -3.0690   -2.5838    0.0000 C   0  0  0  0  0  0  0  0  0  0  0  0
   -2.4589   -1.2135    0.0000 C   0  0  0  0  0  0  0  0  0  0  0  0
   -3.3405   -0.0000    0.0000 C   0  0  0  0  0  0  0  0  0  0  0  0
   -2.4589    1.2135    0.0000 C   0  0  0  0  0  0  0  0  0  0  0  0
   -1.0323    0.7500    0.0000 C   0  0  0  0  0  0  0  0  0  0  0  0
    0.3943    1.2135    0.0000 C   0  0  0  0  0  0  0  0  0  0  0  0
    1.2760    0.0000    0.0000 N   0  0  0  0  0  0  0  0  0  0  0  0
    0.3943   -1.2135    0.0000 N   0  0  0  0  0  0  0  0  0  0  0  0
   -1.0323   -0.7500    0.0000 C   0  0  0  0  0  0  0  0  0  0  0  0
    0.8578    2.6401    0.0000 C   0  0  0  0  0  0  0  0  0  0  0  0
    2.3250    2.9520    0.0000 C   0  0  0  0  0  0  0  0  0  0  0  0
    2.7886    4.3786    0.0000 C   0  0  0  0  0  0  0  0  0  0  0  0
    1.7849    5.4933    0.0000 C   0  0  0  0  0  0  0  0  0  0  0  0
    0.3177    5.1814    0.0000 N   0  0  0  0  0  0  0  0  0  0  0  0
   -0.1459    3.7548    0.0000 C   0  0  0  0  0  0  0  0  0  0  0  0
    2.2484    6.9199    0.0000 C   0  0  0  0  0  0  0  0  0  0  0  0
    2.7119    8.3464    0.0000 N   0  0  0  0  0  0  0  0  0  0  0  0
   -4.8323   -0.1568    0.0000 C   0  0  0  0  0  0  0  0  0  0  0  0
   -5.4424   -1.5271    0.0000 C   0  0  0  0  0  0  0  0  0  0  0  0
   -6.9342   -1.6839    0.0000 C   0  0  0  0  0  0  0  0  0  0  0  0
   -8.4260   -1.8407    0.0000 C   0  0  0  0  0  0  0  0  0  0  0  0
  1  2  1  0
  2  3  1  0
  3  4  2  0
  4  5  1  0
  5  6  2  0
  6  7  1  0
  7  8  1  0
  8  9  1  0
  9 10  2  0
 10 11  1  0
 11 12  1  0
  9 13  1  0
 13 14  2  0
 14 15  1  0
 15 16  2  0
 16 17  1  0
 17 18  2  0
 16 19  1  0
 19 20  3  0
  6 21  1  0
 21 22  2  0
 22 23  1  0
 23 24  3  0
 22  3  1  0
 12  5  1  0
 12  8  2  0
 18 13  1  0
M  END
>  <Molecule>  (246) 
CHEMBL1972250

>  <Standard Type>  (246) 
Ki

>  <Standard Relation>  (246) 
>

>  <Standard Value>  (246) 
1584.89

>  <Standard Units>  (246) 
nM

>  <pChEMBL Value>  (246) 
nan

>  <Comment>  (246) 
inactive

>  <Compound Key>  (246) 
SID103904815

>  <Assay>  (246) 
CHEMBL1963742

>  <Assay Description>  (246) 
PUBCHEM_BIOASSAY: Navigating the Kinome. (Class of assay: other) Panel member name: JAK3

>  <BAO Format>  (246) 
assay format

>  <Target>  (246) 
CHEMBL2148

>  <Target Pref. Name>  (246) 
Tyrosine-protein kinase JAK3

>  <Target Organism>  (246) 
Homo sapiens

>  <Target Type>  (246) 
SINGLE PROTEIN

>  <Document>  (246) 
CHEMBL1201862

>  <Source>  (246) 
PubChem BioAssays

>  <Max Phase>  (246) 
0

>  <#Ro5 Violations>  (246) 
0

>  <Molecular Weight>  (246) 
312.33

>  <Ligand Efficiency BEI>  (246) 
nan

>  <Ligand Efficiency LE>  (246) 
nan

>  <Ligand Efficiency LLE>  (246) 
nan

>  <Ligand Efficiency SEI>  (246) 
nan

>  <ALogP>  (246) 
2.9

>  <Assay Organism>  (246) 
nan

>  <Assay Tissue ChEMBL ID>  (246) 
nan

>  <Assay Tissue Name>  (246) 
nan

>  <Assay Cell Type>  (246) 
nan

>  <Assay Subcellular Fraction>  (246) 
nan

>  <Organism Tax ID>  (246) 
9606

>  <BAO Format ID>  (246) 
BAO_0000019

>  <Published Type>  (246) 
nan

>  <Published Relation>  (246) 
nan

>  <Published Value>  (246) 
nan

>  <Published Units>  (246) 
nan

>  <Canonical Smiles>  (246) 
COc1cc2c(Cc3c(n[nH]c23)c4ccc(nc4)C#N)cc1C#C

>  <Data Validity Comment>  (246) 
nan

>  <Document Journal>  (246) 
nan

>  <Document Year>  (246) 
nan

>  <SRC ID>  (246) 
7

>  <UO Units>  (246) 
UO_0000065

>  <Potential Duplicate>  (246) 
False

>  <Class>  (246) 
0

$$$$

     RDKit          2D

 22 24  0  0  0  0  0  0  0  0999 V2000
    3.0000    0.0000    0.0000 Cl  0  0  0  0  0  0  0  0  0  0  0  0
    1.5000    0.0000    0.0000 C   0  0  0  0  0  0  0  0  0  0  0  0
    0.7500   -1.2990    0.0000 C   0  0  0  0  0  0  0  0  0  0  0  0
   -0.7500   -1.2990    0.0000 C   0  0  0  0  0  0  0  0  0  0  0  0
   -1.5000    0.0000    0.0000 C   0  0  0  0  0  0  0  0  0  0  0  0
   -3.0000    0.0000    0.0000 C   0  0  0  0  0  0  0  0  0  0  0  0
   -3.7500    1.2990    0.0000 N   0  0  0  0  0  0  0  0  0  0  0  0
   -5.2500    1.2990    0.0000 C   0  0  0  0  0  0  0  0  0  0  0  0
   -6.3107    2.3597    0.0000 C   0  0  0  0  0  0  0  0  0  0  0  0
   -6.3107    3.8597    0.0000 N   0  0  0  0  0  0  0  0  0  0  0  0
   -5.0116    4.6097    0.0000 C   0  0  0  0  0  0  0  0  0  0  0  0
   -3.7126    3.8597    0.0000 C   0  0  0  0  0  0  0  0  0  0  0  0
   -2.4135    4.6097    0.0000 C   0  0  0  0  0  0  0  0  0  0  0  0
   -2.4135    6.1097    0.0000 N   0  0  0  0  0  0  0  0  0  0  0  0
   -3.7126    6.8597    0.0000 C   0  0  0  0  0  0  0  0  0  0  0  0
   -5.0116    6.1097    0.0000 C   0  0  0  0  0  0  0  0  0  0  0  0
   -7.3713    1.2990    0.0000 C   0  0  0  0  0  0  0  0  0  0  0  0
   -8.8713    1.2990    0.0000 O   0  0  0  0  0  0  0  0  0  0  0  0
   -6.3107    0.2384    0.0000 C   0  0  0  0  0  0  0  0  0  0  0  0
   -6.3107   -1.2616    0.0000 O   0  0  0  0  0  0  0  0  0  0  0  0
   -0.7500    1.2990    0.0000 C   0  0  0  0  0  0  0  0  0  0  0  0
    0.7500    1.2990    0.0000 C   0  0  0  0  0  0  0  0  0  0  0  0
  1  2  1  0
  2  3  2  0
  3  4  1  0
  4  5  2  0
  5  6  1  0
  6  7  1  0
  7  8  1  0
  8  9  2  0
  9 10  1  0
 10 11  1  0
 11 12  2  0
 12 13  1  0
 13 14  2  0
 14 15  1  0
 15 16  2  0
  9 17  1  0
 17 18  2  0
 17 19  1  0
 19 20  2  0
  5 21  1  0
 21 22  2  0
 22  2  1  0
 19  8  1  0
 16 11  1  0
M  END
>  <Molecule>  (247) 
CHEMBL1980489

>  <Standard Type>  (247) 
Ki

>  <Standard Relation>  (247) 
>

>  <Standard Value>  (247) 
1584.89

>  <Standard Units>  (247) 
nM

>  <pChEMBL Value>  (247) 
nan

>  <Comment>  (247) 
inactive

>  <Compound Key>  (247) 
SID103904952

>  <Assay>  (247) 
CHEMBL1963742

>  <Assay Description>  (247) 
PUBCHEM_BIOASSAY: Navigating the Kinome. (Class of assay: other) Panel member name: JAK3

>  <BAO Format>  (247) 
assay format

>  <Target>  (247) 
CHEMBL2148

>  <Target Pref. Name>  (247) 
Tyrosine-protein kinase JAK3

>  <Target Organism>  (247) 
Homo sapiens

>  <Target Type>  (247) 
SINGLE PROTEIN

>  <Document>  (247) 
CHEMBL1201862

>  <Source>  (247) 
PubChem BioAssays

>  <Max Phase>  (247) 
0

>  <#Ro5 Violations>  (247) 
0

>  <Molecular Weight>  (247) 
313.74

>  <Ligand Efficiency BEI>  (247) 
nan

>  <Ligand Efficiency LE>  (247) 
nan

>  <Ligand Efficiency LLE>  (247) 
nan

>  <Ligand Efficiency SEI>  (247) 
nan

>  <ALogP>  (247) 
2.69

>  <Assay Organism>  (247) 
nan

>  <Assay Tissue ChEMBL ID>  (247) 
nan

>  <Assay Tissue Name>  (247) 
nan

>  <Assay Cell Type>  (247) 
nan

>  <Assay Subcellular Fraction>  (247) 
nan

>  <Organism Tax ID>  (247) 
9606

>  <BAO Format ID>  (247) 
BAO_0000019

>  <Published Type>  (247) 
nan

>  <Published Relation>  (247) 
nan

>  <Published Value>  (247) 
nan

>  <Published Units>  (247) 
nan

>  <Canonical Smiles>  (247) 
Clc1ccc(CNC2=C(Nc3ccncc3)C(=O)C2=O)cc1

>  <Data Validity Comment>  (247) 
nan

>  <Document Journal>  (247) 
nan

>  <Document Year>  (247) 
nan

>  <SRC ID>  (247) 
7

>  <UO Units>  (247) 
UO_0000065

>  <Potential Duplicate>  (247) 
False

>  <Class>  (247) 
0

$$$$

     RDKit          2D

 36 40  0  0  0  0  0  0  0  0999 V2000
   -0.7500   -6.4952    0.0000 C   0  0  0  0  0  0  0  0  0  0  0  0
    0.7500   -6.4952    0.0000 O   0  0  0  0  0  0  0  0  0  0  0  0
    1.5000   -5.1962    0.0000 C   0  0  0  0  0  0  0  0  0  0  0  0
    0.7500   -3.8971    0.0000 C   0  0  0  0  0  0  0  0  0  0  0  0
    1.5000   -2.5981    0.0000 C   0  0  0  0  0  0  0  0  0  0  0  0
    3.0000   -2.5981    0.0000 C   0  0  0  0  0  0  0  0  0  0  0  0
    3.7500   -3.8971    0.0000 C   0  0  0  0  0  0  0  0  0  0  0  0
    3.0000   -5.1962    0.0000 C   0  0  0  0  0  0  0  0  0  0  0  0
    3.7500   -6.4952    0.0000 O   0  0  0  0  0  0  0  0  0  0  0  0
    0.7500   -1.2990    0.0000 C   0  0  0  0  0  0  0  0  0  0  0  0
    1.5000    0.0000    0.0000 C   0  0  0  0  0  0  0  0  0  0  0  0
    0.7500    1.2990    0.0000 C   0  0  0  0  0  0  0  0  0  0  0  0
   -0.7500    1.2990    0.0000 C   0  0  0  0  0  0  0  0  0  0  0  0
   -1.2980    2.6953    0.0000 C   0  0  0  0  0  0  0  0  0  0  0  0
   -0.2778    3.7949    0.0000 O   0  0  0  0  0  0  0  0  0  0  0  0
   -2.7314    3.1375    0.0000 N   0  0  0  0  0  0  0  0  0  0  0  0
   -3.9707    2.2925    0.0000 C   0  0  0  0  0  0  0  0  0  0  0  0
   -5.2101    3.1375    0.0000 C   0  0  0  0  0  0  0  0  0  0  0  0
   -6.5615    2.4867    0.0000 C   0  0  0  0  0  0  0  0  0  0  0  0
   -6.6736    0.9909    0.0000 C   0  0  0  0  0  0  0  0  0  0  0  0
   -5.4343    0.1459    0.0000 C   0  0  0  0  0  0  0  0  0  0  0  0
   -4.0828    0.7967    0.0000 C   0  0  0  0  0  0  0  0  0  0  0  0
   -2.9832   -0.2236    0.0000 N   0  0  0  0  0  0  0  0  0  0  0  0
   -1.5000    0.0000    0.0000 C   0  0  0  0  0  0  0  0  0  0  0  0
   -0.7500   -1.2990    0.0000 C   0  0  0  0  0  0  0  0  0  0  0  0
   -7.8009    3.3316    0.0000 C   0  0  0  0  0  0  0  0  0  0  0  0
   -9.1524    2.6808    0.0000 O   0  0  0  0  0  0  0  0  0  0  0  0
   -7.6888    4.8274    0.0000 N   0  0  0  0  0  0  0  0  0  0  0  0
   -8.9282    5.6724    0.0000 C   0  0  0  0  0  0  0  0  0  0  0  0
   -8.8161    7.1682    0.0000 C   0  0  0  0  0  0  0  0  0  0  0  0
   -7.4646    7.8191    0.0000 C   0  0  0  0  0  0  0  0  0  0  0  0
   -7.3525    9.3149    0.0000 C   0  0  0  0  0  0  0  0  0  0  0  0
   -8.5919   10.1598    0.0000 C   0  0  0  0  0  0  0  0  0  0  0  0
   -9.9433    9.5090    0.0000 C   0  0  0  0  0  0  0  0  0  0  0  0
  -11.1827   10.3540    0.0000 F   0  0  0  0  0  0  0  0  0  0  0  0
  -10.0554    8.0132    0.0000 C   0  0  0  0  0  0  0  0  0  0  0  0
  1  2  1  0
  2  3  1  0
  3  4  2  0
  4  5  1  0
  5  6  2  0
  6  7  1  0
  7  8  2  0
  8  9  1  0
  5 10  1  0
 10 11  2  0
 11 12  1  0
 12 13  2  0
 13 14  1  0
 14 15  2  0
 14 16  1  0
 16 17  1  0
 17 18  2  0
 18 19  1  0
 19 20  2  0
 20 21  1  0
 21 22  2  0
 22 23  1  0
 23 24  1  0
 24 25  2  0
 19 26  1  0
 26 27  2  0
 26 28  1  0
 28 29  1  0
 29 30  1  0
 30 31  2  0
 31 32  1  0
 32 33  2  0
 33 34  1  0
 34 35  1  0
 34 36  2  0
  8  3  1  0
 25 10  1  0
 24 13  1  0
 22 17  1  0
 36 30  1  0
M  END
>  <Molecule>  (248) 
CHEMBL2000832

>  <Standard Type>  (248) 
Ki

>  <Standard Relation>  (248) 
=

>  <Standard Value>  (248) 
398.11

>  <Standard Units>  (248) 
nM

>  <pChEMBL Value>  (248) 
6.4

>  <Comment>  (248) 
active

>  <Compound Key>  (248) 
SID103904711

>  <Assay>  (248) 
CHEMBL1963742

>  <Assay Description>  (248) 
PUBCHEM_BIOASSAY: Navigating the Kinome. (Class of assay: other) Panel member name: JAK3

>  <BAO Format>  (248) 
assay format

>  <Target>  (248) 
CHEMBL2148

>  <Target Pref. Name>  (248) 
Tyrosine-protein kinase JAK3

>  <Target Organism>  (248) 
Homo sapiens

>  <Target Type>  (248) 
SINGLE PROTEIN

>  <Document>  (248) 
CHEMBL1201862

>  <Source>  (248) 
PubChem BioAssays

>  <Max Phase>  (248) 
0

>  <#Ro5 Violations>  (248) 
1

>  <Molecular Weight>  (248) 
483.5

>  <Ligand Efficiency BEI>  (248) 
nan

>  <Ligand Efficiency LE>  (248) 
nan

>  <Ligand Efficiency LLE>  (248) 
nan

>  <Ligand Efficiency SEI>  (248) 
nan

>  <ALogP>  (248) 
5.45

>  <Assay Organism>  (248) 
nan

>  <Assay Tissue ChEMBL ID>  (248) 
nan

>  <Assay Tissue Name>  (248) 
nan

>  <Assay Cell Type>  (248) 
nan

>  <Assay Subcellular Fraction>  (248) 
nan

>  <Organism Tax ID>  (248) 
9606

>  <BAO Format ID>  (248) 
BAO_0000019

>  <Published Type>  (248) 
nan

>  <Published Relation>  (248) 
nan

>  <Published Value>  (248) 
nan

>  <Published Units>  (248) 
nan

>  <Canonical Smiles>  (248) 
COc1cc(ccc1O)c2ccc3C(=O)Nc4cc(ccc4Nc3c2)C(=O)NCc5cccc(F)c5

>  <Data Validity Comment>  (248) 
nan

>  <Document Journal>  (248) 
nan

>  <Document Year>  (248) 
nan

>  <SRC ID>  (248) 
7

>  <UO Units>  (248) 
UO_0000065

>  <Potential Duplicate>  (248) 
False

>  <Class>  (248) 
1

$$$$

     RDKit          2D

 26 29  0  0  0  0  0  0  0  0999 V2000
    5.2500   -6.4952    0.0000 F   0  0  0  0  0  0  0  0  0  0  0  0
    3.7500   -6.4952    0.0000 C   0  0  0  0  0  0  0  0  0  0  0  0
    3.0000   -7.7942    0.0000 C   0  0  0  0  0  0  0  0  0  0  0  0
    1.5000   -7.7942    0.0000 C   0  0  0  0  0  0  0  0  0  0  0  0
    0.7500   -6.4952    0.0000 C   0  0  0  0  0  0  0  0  0  0  0  0
    1.5000   -5.1962    0.0000 C   0  0  0  0  0  0  0  0  0  0  0  0
    0.7500   -3.8971    0.0000 C   0  0  0  0  0  0  0  0  0  0  0  0
   -0.7500   -3.8971    0.0000 O   0  0  0  0  0  0  0  0  0  0  0  0
    1.5000   -2.5981    0.0000 N   0  0  0  0  0  0  0  0  0  0  0  0
    0.7500   -1.2990    0.0000 C   0  0  0  0  0  0  0  0  0  0  0  0
    1.5000    0.0000    0.0000 C   0  0  0  0  0  0  0  0  0  0  0  0
    0.7500    1.2990    0.0000 N   0  0  0  0  0  0  0  0  0  0  0  0
   -0.7500    1.2990    0.0000 C   0  0  0  0  0  0  0  0  0  0  0  0
   -1.7537    2.4138    0.0000 N   0  0  0  0  0  0  0  0  0  0  0  0
   -3.1240    1.8037    0.0000 C   0  0  0  0  0  0  0  0  0  0  0  0
   -2.9672    0.3119    0.0000 C   0  0  0  0  0  0  0  0  0  0  0  0
   -4.0819   -0.6918    0.0000 C   0  0  0  0  0  0  0  0  0  0  0  0
   -5.5085   -0.2283    0.0000 C   0  0  0  0  0  0  0  0  0  0  0  0
   -6.6232   -1.2320    0.0000 C   0  0  0  0  0  0  0  0  0  0  0  0
   -6.3114   -2.6992    0.0000 C   0  0  0  0  0  0  0  0  0  0  0  0
   -4.8848   -3.1627    0.0000 C   0  0  0  0  0  0  0  0  0  0  0  0
   -3.7701   -2.1590    0.0000 C   0  0  0  0  0  0  0  0  0  0  0  0
   -1.5000    0.0000    0.0000 C   0  0  0  0  0  0  0  0  0  0  0  0
   -0.7500   -1.2990    0.0000 C   0  0  0  0  0  0  0  0  0  0  0  0
    3.0000   -5.1962    0.0000 C   0  0  0  0  0  0  0  0  0  0  0  0
    3.7500   -3.8971    0.0000 F   0  0  0  0  0  0  0  0  0  0  0  0
  1  2  1  0
  2  3  2  0
  3  4  1  0
  4  5  2  0
  5  6  1  0
  6  7  1  0
  7  8  2  0
  7  9  1  0
  9 10  1  0
 10 11  2  0
 11 12  1  0
 12 13  2  0
 13 14  1  0
 14 15  1  0
 15 16  2  0
 16 17  1  0
 17 18  2  0
 18 19  1  0
 19 20  2  0
 20 21  1  0
 21 22  2  0
 16 23  1  0
 23 24  2  0
  6 25  2  0
 25 26  1  0
 25  2  1  0
 24 10  1  0
 23 13  1  0
 22 17  1  0
M  END
>  <Molecule>  (249) 
CHEMBL1974416

>  <Standard Type>  (249) 
Ki

>  <Standard Relation>  (249) 
>

>  <Standard Value>  (249) 
1584.89

>  <Standard Units>  (249) 
nM

>  <pChEMBL Value>  (249) 
nan

>  <Comment>  (249) 
inactive

>  <Compound Key>  (249) 
SID103904194

>  <Assay>  (249) 
CHEMBL1963742

>  <Assay Description>  (249) 
PUBCHEM_BIOASSAY: Navigating the Kinome. (Class of assay: other) Panel member name: JAK3

>  <BAO Format>  (249) 
assay format

>  <Target>  (249) 
CHEMBL2148

>  <Target Pref. Name>  (249) 
Tyrosine-protein kinase JAK3

>  <Target Organism>  (249) 
Homo sapiens

>  <Target Type>  (249) 
SINGLE PROTEIN

>  <Document>  (249) 
CHEMBL1201862

>  <Source>  (249) 
PubChem BioAssays

>  <Max Phase>  (249) 
0

>  <#Ro5 Violations>  (249) 
0

>  <Molecular Weight>  (249) 
349.34

>  <Ligand Efficiency BEI>  (249) 
nan

>  <Ligand Efficiency LE>  (249) 
nan

>  <Ligand Efficiency LLE>  (249) 
nan

>  <Ligand Efficiency SEI>  (249) 
nan

>  <ALogP>  (249) 
4.76

>  <Assay Organism>  (249) 
nan

>  <Assay Tissue ChEMBL ID>  (249) 
nan

>  <Assay Tissue Name>  (249) 
nan

>  <Assay Cell Type>  (249) 
nan

>  <Assay Subcellular Fraction>  (249) 
nan

>  <Organism Tax ID>  (249) 
9606

>  <BAO Format ID>  (249) 
BAO_0000019

>  <Published Type>  (249) 
nan

>  <Published Relation>  (249) 
nan

>  <Published Value>  (249) 
nan

>  <Published Units>  (249) 
nan

>  <Canonical Smiles>  (249) 
Fc1cccc(C(=O)Nc2cnc3[nH]cc(c4ccccc4)c3c2)c1F

>  <Data Validity Comment>  (249) 
nan

>  <Document Journal>  (249) 
nan

>  <Document Year>  (249) 
nan

>  <SRC ID>  (249) 
7

>  <UO Units>  (249) 
UO_0000065

>  <Potential Duplicate>  (249) 
False

>  <Class>  (249) 
0

$$$$

     RDKit          2D

 23 26  0  0  0  0  0  0  0  0999 V2000
   -4.5556    9.1664    0.0000 O   0  0  0  0  0  0  0  0  0  0  0  0
   -3.4408    8.1628    0.0000 C   0  0  0  0  0  0  0  0  0  0  0  0
   -2.0143    8.6263    0.0000 N   0  0  0  0  0  0  0  0  0  0  0  0
   -0.8995    7.6226    0.0000 C   0  0  0  0  0  0  0  0  0  0  0  0
    0.5271    8.0861    0.0000 C   0  0  0  0  0  0  0  0  0  0  0  0
    0.8389    9.5533    0.0000 O   0  0  0  0  0  0  0  0  0  0  0  0
   -0.2758   10.5570    0.0000 C   0  0  0  0  0  0  0  0  0  0  0  0
   -1.7024   10.0935    0.0000 C   0  0  0  0  0  0  0  0  0  0  0  0
   -3.7527    6.6955    0.0000 C   0  0  0  0  0  0  0  0  0  0  0  0
   -5.1793    6.2320    0.0000 C   0  0  0  0  0  0  0  0  0  0  0  0
   -5.4912    4.7648    0.0000 C   0  0  0  0  0  0  0  0  0  0  0  0
   -4.3764    3.7611    0.0000 C   0  0  0  0  0  0  0  0  0  0  0  0
   -2.9499    4.2246    0.0000 C   0  0  0  0  0  0  0  0  0  0  0  0
   -2.6380    5.6918    0.0000 C   0  0  0  0  0  0  0  0  0  0  0  0
   -1.8351    3.2209    0.0000 C   0  0  0  0  0  0  0  0  0  0  0  0
   -0.4086    3.6844    0.0000 C   0  0  0  0  0  0  0  0  0  0  0  0
    0.7062    2.6807    0.0000 N   0  0  0  0  0  0  0  0  0  0  0  0
    0.3943    1.2135    0.0000 C   0  0  0  0  0  0  0  0  0  0  0  0
    1.2760    0.0000    0.0000 N   0  0  0  0  0  0  0  0  0  0  0  0
    0.3943   -1.2135    0.0000 C   0  0  0  0  0  0  0  0  0  0  0  0
   -1.0323   -0.7500    0.0000 C   0  0  0  0  0  0  0  0  0  0  0  0
   -1.0323    0.7500    0.0000 C   0  0  0  0  0  0  0  0  0  0  0  0
   -2.1470    1.7537    0.0000 C   0  0  0  0  0  0  0  0  0  0  0  0
  1  2  2  0
  2  3  1  0
  3  4  1  0
  4  5  1  0
  5  6  1  0
  6  7  1  0
  7  8  1  0
  2  9  1  0
  9 10  2  0
 10 11  1  0
 11 12  2  0
 12 13  1  0
 13 14  2  0
 13 15  1  0
 15 16  2  0
 16 17  1  0
 17 18  2  0
 18 19  1  0
 19 20  1  0
 20 21  2  0
 21 22  1  0
 22 23  2  0
  8  3  1  0
 14  9  1  0
 23 15  1  0
 22 18  1  0
M  END
>  <Molecule>  (250) 
CHEMBL1997872

>  <Standard Type>  (250) 
Ki

>  <Standard Relation>  (250) 
>

>  <Standard Value>  (250) 
1584.89

>  <Standard Units>  (250) 
nM

>  <pChEMBL Value>  (250) 
nan

>  <Comment>  (250) 
inactive

>  <Compound Key>  (250) 
SID103905009

>  <Assay>  (250) 
CHEMBL1963742

>  <Assay Description>  (250) 
PUBCHEM_BIOASSAY: Navigating the Kinome. (Class of assay: other) Panel member name: JAK3

>  <BAO Format>  (250) 
assay format

>  <Target>  (250) 
CHEMBL2148

>  <Target Pref. Name>  (250) 
Tyrosine-protein kinase JAK3

>  <Target Organism>  (250) 
Homo sapiens

>  <Target Type>  (250) 
SINGLE PROTEIN

>  <Document>  (250) 
CHEMBL1201862

>  <Source>  (250) 
PubChem BioAssays

>  <Max Phase>  (250) 
0

>  <#Ro5 Violations>  (250) 
0

>  <Molecular Weight>  (250) 
307.35

>  <Ligand Efficiency BEI>  (250) 
nan

>  <Ligand Efficiency LE>  (250) 
nan

>  <Ligand Efficiency LLE>  (250) 
nan

>  <Ligand Efficiency SEI>  (250) 
nan

>  <ALogP>  (250) 
2.7

>  <Assay Organism>  (250) 
nan

>  <Assay Tissue ChEMBL ID>  (250) 
nan

>  <Assay Tissue Name>  (250) 
nan

>  <Assay Cell Type>  (250) 
nan

>  <Assay Subcellular Fraction>  (250) 
nan

>  <Organism Tax ID>  (250) 
9606

>  <BAO Format ID>  (250) 
BAO_0000019

>  <Published Type>  (250) 
nan

>  <Published Relation>  (250) 
nan

>  <Published Value>  (250) 
nan

>  <Published Units>  (250) 
nan

>  <Canonical Smiles>  (250) 
O=C(N1CCOCC1)c2cccc(c2)c3cnc4[nH]ccc4c3

>  <Data Validity Comment>  (250) 
nan

>  <Document Journal>  (250) 
nan

>  <Document Year>  (250) 
nan

>  <SRC ID>  (250) 
7

>  <UO Units>  (250) 
UO_0000065

>  <Potential Duplicate>  (250) 
False

>  <Class>  (250) 
0

$$$$

     RDKit          2D

 21 23  0  0  0  0  0  0  0  0999 V2000
    3.7500   -1.2990    0.0000 C   0  0  0  0  0  0  0  0  0  0  0  0
    3.0000    0.0000    0.0000 N   0  0  0  0  0  0  0  0  0  0  0  0
    3.7500    1.2990    0.0000 C   0  0  0  0  0  0  0  0  0  0  0  0
    1.5000    0.0000    0.0000 C   0  0  0  0  0  0  0  0  0  0  0  0
    0.7500   -1.2990    0.0000 C   0  0  0  0  0  0  0  0  0  0  0  0
   -0.7500   -1.2990    0.0000 C   0  0  0  0  0  0  0  0  0  0  0  0
   -1.5000    0.0000    0.0000 C   0  0  0  0  0  0  0  0  0  0  0  0
   -3.0000    0.0000    0.0000 N   0  0  0  0  0  0  0  0  0  0  0  0
   -3.7500    1.2990    0.0000 C   0  0  0  0  0  0  0  0  0  0  0  0
   -5.2418    1.4558    0.0000 C   0  0  0  0  0  0  0  0  0  0  0  0
   -5.5537    2.9231    0.0000 C   0  0  0  0  0  0  0  0  0  0  0  0
   -4.2546    3.6731    0.0000 N   0  0  0  0  0  0  0  0  0  0  0  0
   -3.1399    2.6694    0.0000 N   0  0  0  0  0  0  0  0  0  0  0  0
   -6.9240    3.5332    0.0000 C   0  0  0  0  0  0  0  0  0  0  0  0
   -8.2230    2.7832    0.0000 C   0  0  0  0  0  0  0  0  0  0  0  0
   -9.3377    3.7869    0.0000 S   0  0  0  0  0  0  0  0  0  0  0  0
   -8.7276    5.1572    0.0000 C   0  0  0  0  0  0  0  0  0  0  0  0
   -9.4776    6.4562    0.0000 Br  0  0  0  0  0  0  0  0  0  0  0  0
   -7.2358    5.0004    0.0000 C   0  0  0  0  0  0  0  0  0  0  0  0
   -0.7500    1.2990    0.0000 C   0  0  0  0  0  0  0  0  0  0  0  0
    0.7500    1.2990    0.0000 C   0  0  0  0  0  0  0  0  0  0  0  0
  1  2  1  0
  2  3  1  0
  2  4  1  0
  4  5  2  0
  5  6  1  0
  6  7  2  0
  7  8  1  0
  8  9  1  0
  9 10  1  0
 10 11  2  0
 11 12  1  0
 12 13  1  0
 11 14  1  0
 14 15  2  0
 15 16  1  0
 16 17  1  0
 17 18  1  0
 17 19  2  0
  7 20  1  0
 20 21  2  0
 21  4  1  0
 13  9  2  0
 19 14  1  0
M  END
>  <Molecule>  (251) 
CHEMBL1984236

>  <Standard Type>  (251) 
Ki

>  <Standard Relation>  (251) 
>

>  <Standard Value>  (251) 
5011.87

>  <Standard Units>  (251) 
nM

>  <pChEMBL Value>  (251) 
nan

>  <Comment>  (251) 
inactive

>  <Compound Key>  (251) 
SID103905379

>  <Assay>  (251) 
CHEMBL1963742

>  <Assay Description>  (251) 
PUBCHEM_BIOASSAY: Navigating the Kinome. (Class of assay: other) Panel member name: JAK3

>  <BAO Format>  (251) 
assay format

>  <Target>  (251) 
CHEMBL2148

>  <Target Pref. Name>  (251) 
Tyrosine-protein kinase JAK3

>  <Target Organism>  (251) 
Homo sapiens

>  <Target Type>  (251) 
SINGLE PROTEIN

>  <Document>  (251) 
CHEMBL1201862

>  <Source>  (251) 
PubChem BioAssays

>  <Max Phase>  (251) 
0

>  <#Ro5 Violations>  (251) 
0

>  <Molecular Weight>  (251) 
363.28

>  <Ligand Efficiency BEI>  (251) 
nan

>  <Ligand Efficiency LE>  (251) 
nan

>  <Ligand Efficiency LLE>  (251) 
nan

>  <Ligand Efficiency SEI>  (251) 
nan

>  <ALogP>  (251) 
4.71

>  <Assay Organism>  (251) 
nan

>  <Assay Tissue ChEMBL ID>  (251) 
nan

>  <Assay Tissue Name>  (251) 
nan

>  <Assay Cell Type>  (251) 
nan

>  <Assay Subcellular Fraction>  (251) 
nan

>  <Organism Tax ID>  (251) 
9606

>  <BAO Format ID>  (251) 
BAO_0000019

>  <Published Type>  (251) 
nan

>  <Published Relation>  (251) 
nan

>  <Published Value>  (251) 
nan

>  <Published Units>  (251) 
nan

>  <Canonical Smiles>  (251) 
CN(C)c1ccc(Nc2cc([nH]n2)c3csc(Br)c3)cc1

>  <Data Validity Comment>  (251) 
nan

>  <Document Journal>  (251) 
nan

>  <Document Year>  (251) 
nan

>  <SRC ID>  (251) 
7

>  <UO Units>  (251) 
UO_0000065

>  <Potential Duplicate>  (251) 
False

>  <Class>  (251) 
0

$$$$

     RDKit          2D

 26 29  0  0  0  0  0  0  0  0999 V2000
    2.9520   -4.6564    0.0000 O   0  0  0  0  0  0  0  0  0  0  0  0
    2.6401   -3.1891    0.0000 N   0  0  0  0  0  0  0  0  0  0  0  0
    1.2135   -2.7256    0.0000 C   0  0  0  0  0  0  0  0  0  0  0  0
    0.7500   -1.2990    0.0000 C   0  0  0  0  0  0  0  0  0  0  0  0
    1.5000    0.0000    0.0000 C   0  0  0  0  0  0  0  0  0  0  0  0
    0.7500    1.2990    0.0000 C   0  0  0  0  0  0  0  0  0  0  0  0
   -0.7500    1.2990    0.0000 C   0  0  0  0  0  0  0  0  0  0  0  0
   -1.5000    0.0000    0.0000 C   0  0  0  0  0  0  0  0  0  0  0  0
   -0.7500   -1.2990    0.0000 C   0  0  0  0  0  0  0  0  0  0  0  0
   -1.2135   -2.7256    0.0000 C   0  0  0  0  0  0  0  0  0  0  0  0
   -2.5838   -3.3357    0.0000 C   0  0  0  0  0  0  0  0  0  0  0  0
   -2.7406   -4.8275    0.0000 C   0  0  0  0  0  0  0  0  0  0  0  0
   -1.5271   -5.7092    0.0000 C   0  0  0  0  0  0  0  0  0  0  0  0
   -1.6839   -7.2010    0.0000 N   0  0  0  0  0  0  0  0  0  0  0  0
   -3.0542   -7.8111    0.0000 S   0  0  0  0  0  0  0  0  0  0  0  0
   -3.6643   -6.4408    0.0000 O   0  0  0  0  0  0  0  0  0  0  0  0
   -2.4441   -9.1814    0.0000 O   0  0  0  0  0  0  0  0  0  0  0  0
   -4.4245   -8.4212    0.0000 C   0  0  0  0  0  0  0  0  0  0  0  0
   -5.6381   -7.5395    0.0000 C   0  0  0  0  0  0  0  0  0  0  0  0
   -7.0084   -8.1496    0.0000 C   0  0  0  0  0  0  0  0  0  0  0  0
   -7.1652   -9.6414    0.0000 C   0  0  0  0  0  0  0  0  0  0  0  0
   -5.9517  -10.5231    0.0000 C   0  0  0  0  0  0  0  0  0  0  0  0
   -6.1084  -12.0149    0.0000 Br  0  0  0  0  0  0  0  0  0  0  0  0
   -4.5813   -9.9130    0.0000 C   0  0  0  0  0  0  0  0  0  0  0  0
   -0.1568   -5.0991    0.0000 C   0  0  0  0  0  0  0  0  0  0  0  0
   -0.0000   -3.6073    0.0000 C   0  0  0  0  0  0  0  0  0  0  0  0
  1  2  1  0
  2  3  2  3
  3  4  1  0
  4  5  2  0
  5  6  1  0
  6  7  2  0
  7  8  1  0
  8  9  2  0
  9 10  1  0
 10 11  2  0
 11 12  1  0
 12 13  2  0
 13 14  1  0
 14 15  1  0
 15 16  2  0
 15 17  2  0
 15 18  1  0
 18 19  2  0
 19 20  1  0
 20 21  2  0
 21 22  1  0
 22 23  1  0
 22 24  2  0
 13 25  1  0
 25 26  2  0
 26  3  1  0
  9  4  1  0
 26 10  1  0
 24 18  1  0
M  END
>  <Molecule>  (252) 
CHEMBL1973793

>  <Standard Type>  (252) 
Ki

>  <Standard Relation>  (252) 
>

>  <Standard Value>  (252) 
5011.87

>  <Standard Units>  (252) 
nM

>  <pChEMBL Value>  (252) 
nan

>  <Comment>  (252) 
inactive

>  <Compound Key>  (252) 
SID103905012

>  <Assay>  (252) 
CHEMBL1963742

>  <Assay Description>  (252) 
PUBCHEM_BIOASSAY: Navigating the Kinome. (Class of assay: other) Panel member name: JAK3

>  <BAO Format>  (252) 
assay format

>  <Target>  (252) 
CHEMBL2148

>  <Target Pref. Name>  (252) 
Tyrosine-protein kinase JAK3

>  <Target Organism>  (252) 
Homo sapiens

>  <Target Type>  (252) 
SINGLE PROTEIN

>  <Document>  (252) 
CHEMBL1201862

>  <Source>  (252) 
PubChem BioAssays

>  <Max Phase>  (252) 
0

>  <#Ro5 Violations>  (252) 
0

>  <Molecular Weight>  (252) 
429.3

>  <Ligand Efficiency BEI>  (252) 
nan

>  <Ligand Efficiency LE>  (252) 
nan

>  <Ligand Efficiency LLE>  (252) 
nan

>  <Ligand Efficiency SEI>  (252) 
nan

>  <ALogP>  (252) 
4.46

>  <Assay Organism>  (252) 
nan

>  <Assay Tissue ChEMBL ID>  (252) 
nan

>  <Assay Tissue Name>  (252) 
nan

>  <Assay Cell Type>  (252) 
nan

>  <Assay Subcellular Fraction>  (252) 
nan

>  <Organism Tax ID>  (252) 
9606

>  <BAO Format ID>  (252) 
BAO_0000019

>  <Published Type>  (252) 
nan

>  <Published Relation>  (252) 
nan

>  <Published Value>  (252) 
nan

>  <Published Units>  (252) 
nan

>  <Canonical Smiles>  (252) 
ON=C1c2ccccc2c3ccc(NS(=O)(=O)c4cccc(Br)c4)cc13

>  <Data Validity Comment>  (252) 
nan

>  <Document Journal>  (252) 
nan

>  <Document Year>  (252) 
nan

>  <SRC ID>  (252) 
7

>  <UO Units>  (252) 
UO_0000065

>  <Potential Duplicate>  (252) 
False

>  <Class>  (252) 
0

$$$$

     RDKit          2D

 24 27  0  0  0  0  0  0  0  0999 V2000
   -8.5256    0.3621    0.0000 N   0  0  0  0  0  0  0  0  0  0  0  0
   -7.0990    0.8256    0.0000 C   0  0  0  0  0  0  0  0  0  0  0  0
   -6.7871    2.2929    0.0000 C   0  0  0  0  0  0  0  0  0  0  0  0
   -5.3605    2.7564    0.0000 C   0  0  0  0  0  0  0  0  0  0  0  0
   -4.2458    1.7527    0.0000 C   0  0  0  0  0  0  0  0  0  0  0  0
   -4.5577    0.2855    0.0000 C   0  0  0  0  0  0  0  0  0  0  0  0
   -5.9843   -0.1781    0.0000 C   0  0  0  0  0  0  0  0  0  0  0  0
   -6.2961   -1.6453    0.0000 N   0  0  0  0  0  0  0  0  0  0  0  0
   -5.1814   -2.6490    0.0000 C   0  0  0  0  0  0  0  0  0  0  0  0
   -5.4933   -4.1162    0.0000 N   0  0  0  0  0  0  0  0  0  0  0  0
   -4.3786   -5.1199    0.0000 C   0  0  0  0  0  0  0  0  0  0  0  0
   -4.6904   -6.5871    0.0000 Cl  0  0  0  0  0  0  0  0  0  0  0  0
   -2.9520   -4.6564    0.0000 C   0  0  0  0  0  0  0  0  0  0  0  0
   -2.6401   -3.1891    0.0000 C   0  0  0  0  0  0  0  0  0  0  0  0
   -3.7548   -2.1855    0.0000 N   0  0  0  0  0  0  0  0  0  0  0  0
   -1.2135   -2.7256    0.0000 C   0  0  0  0  0  0  0  0  0  0  0  0
    0.0000   -3.6073    0.0000 C   0  0  0  0  0  0  0  0  0  0  0  0
    1.2135   -2.7256    0.0000 N   0  0  0  0  0  0  0  0  0  0  0  0
    0.7500   -1.2990    0.0000 C   0  0  0  0  0  0  0  0  0  0  0  0
    1.5000    0.0000    0.0000 N   0  0  0  0  0  0  0  0  0  0  0  0
    0.7500    1.2990    0.0000 C   0  0  0  0  0  0  0  0  0  0  0  0
   -0.7500    1.2990    0.0000 C   0  0  0  0  0  0  0  0  0  0  0  0
   -1.5000    0.0000    0.0000 C   0  0  0  0  0  0  0  0  0  0  0  0
   -0.7500   -1.2990    0.0000 C   0  0  0  0  0  0  0  0  0  0  0  0
  1  2  1  0
  2  3  1  0
  3  4  1  0
  4  5  1  0
  5  6  1  0
  6  7  1  0
  7  8  1  0
  8  9  1  0
  9 10  2  0
 10 11  1  0
 11 12  1  0
 11 13  2  0
 13 14  1  0
 14 15  2  0
 14 16  1  0
 16 17  2  0
 17 18  1  0
 18 19  1  0
 19 20  2  0
 20 21  1  0
 21 22  2  0
 22 23  1  0
 23 24  2  0
  7  2  1  0
 15  9  1  0
 24 16  1  0
 24 19  1  0
M  END
>  <Molecule>  (253) 
CHEMBL1994438

>  <Standard Type>  (253) 
Ki

>  <Standard Relation>  (253) 
=

>  <Standard Value>  (253) 
1000.0

>  <Standard Units>  (253) 
nM

>  <pChEMBL Value>  (253) 
6.0

>  <Comment>  (253) 
active

>  <Compound Key>  (253) 
SID103904239

>  <Assay>  (253) 
CHEMBL1963742

>  <Assay Description>  (253) 
PUBCHEM_BIOASSAY: Navigating the Kinome. (Class of assay: other) Panel member name: JAK3

>  <BAO Format>  (253) 
assay format

>  <Target>  (253) 
CHEMBL2148

>  <Target Pref. Name>  (253) 
Tyrosine-protein kinase JAK3

>  <Target Organism>  (253) 
Homo sapiens

>  <Target Type>  (253) 
SINGLE PROTEIN

>  <Document>  (253) 
CHEMBL1201862

>  <Source>  (253) 
PubChem BioAssays

>  <Max Phase>  (253) 
0

>  <#Ro5 Violations>  (253) 
0

>  <Molecular Weight>  (253) 
342.83

>  <Ligand Efficiency BEI>  (253) 
nan

>  <Ligand Efficiency LE>  (253) 
nan

>  <Ligand Efficiency LLE>  (253) 
nan

>  <Ligand Efficiency SEI>  (253) 
nan

>  <ALogP>  (253) 
3.36

>  <Assay Organism>  (253) 
nan

>  <Assay Tissue ChEMBL ID>  (253) 
nan

>  <Assay Tissue Name>  (253) 
nan

>  <Assay Cell Type>  (253) 
nan

>  <Assay Subcellular Fraction>  (253) 
nan

>  <Organism Tax ID>  (253) 
9606

>  <BAO Format ID>  (253) 
BAO_0000019

>  <Published Type>  (253) 
nan

>  <Published Relation>  (253) 
nan

>  <Published Value>  (253) 
nan

>  <Published Units>  (253) 
nan

>  <Canonical Smiles>  (253) 
NC1CCCCC1Nc2nc(Cl)cc(n2)c3c[nH]c4ncccc34

>  <Data Validity Comment>  (253) 
nan

>  <Document Journal>  (253) 
nan

>  <Document Year>  (253) 
nan

>  <SRC ID>  (253) 
7

>  <UO Units>  (253) 
UO_0000065

>  <Potential Duplicate>  (253) 
False

>  <Class>  (253) 
1

$$$$

     RDKit          2D

 19 21  0  0  0  0  0  0  0  0999 V2000
    5.0260   -1.2990    0.0000 C   0  0  0  0  0  0  0  0  0  0  0  0
    3.5260   -1.2990    0.0000 N   0  0  0  0  0  0  0  0  0  0  0  0
    2.7760    0.0000    0.0000 C   0  0  0  0  0  0  0  0  0  0  0  0
    3.5260    1.2990    0.0000 O   0  0  0  0  0  0  0  0  0  0  0  0
    1.2760    0.0000    0.0000 C   0  0  0  0  0  0  0  0  0  0  0  0
    0.3943    1.2135    0.0000 C   0  0  0  0  0  0  0  0  0  0  0  0
   -1.0323    0.7500    0.0000 C   0  0  0  0  0  0  0  0  0  0  0  0
   -2.4589    1.2135    0.0000 C   0  0  0  0  0  0  0  0  0  0  0  0
   -3.3405    0.0000    0.0000 N   0  0  0  0  0  0  0  0  0  0  0  0
   -2.4589   -1.2135    0.0000 N   0  0  0  0  0  0  0  0  0  0  0  0
   -1.0323   -0.7500    0.0000 C   0  0  0  0  0  0  0  0  0  0  0  0
    0.3943   -1.2135    0.0000 S   0  0  0  0  0  0  0  0  0  0  0  0
   -2.9224    2.6401    0.0000 C   0  0  0  0  0  0  0  0  0  0  0  0
   -1.9187    3.7548    0.0000 C   0  0  0  0  0  0  0  0  0  0  0  0
   -2.3822    5.1814    0.0000 C   0  0  0  0  0  0  0  0  0  0  0  0
   -3.8494    5.4933    0.0000 C   0  0  0  0  0  0  0  0  0  0  0  0
   -4.8531    4.3786    0.0000 C   0  0  0  0  0  0  0  0  0  0  0  0
   -4.3896    2.9520    0.0000 C   0  0  0  0  0  0  0  0  0  0  0  0
   -5.3933    1.8373    0.0000 F   0  0  0  0  0  0  0  0  0  0  0  0
  1  2  1  0
  2  3  1  0
  3  4  2  0
  3  5  1  0
  5  6  2  0
  6  7  1  0
  7  8  1  0
  8  9  2  0
  9 10  1  0
 10 11  1  0
 11 12  1  0
  8 13  1  0
 13 14  2  0
 14 15  1  0
 15 16  2  0
 16 17  1  0
 17 18  2  0
 18 19  1  0
 12  5  1  0
 11  7  2  0
 18 13  1  0
M  END
>  <Molecule>  (254) 
CHEMBL1977681

>  <Standard Type>  (254) 
Ki

>  <Standard Relation>  (254) 
>

>  <Standard Value>  (254) 
1584.89

>  <Standard Units>  (254) 
nM

>  <pChEMBL Value>  (254) 
nan

>  <Comment>  (254) 
inactive

>  <Compound Key>  (254) 
SID103904940

>  <Assay>  (254) 
CHEMBL1963742

>  <Assay Description>  (254) 
PUBCHEM_BIOASSAY: Navigating the Kinome. (Class of assay: other) Panel member name: JAK3

>  <BAO Format>  (254) 
assay format

>  <Target>  (254) 
CHEMBL2148

>  <Target Pref. Name>  (254) 
Tyrosine-protein kinase JAK3

>  <Target Organism>  (254) 
Homo sapiens

>  <Target Type>  (254) 
SINGLE PROTEIN

>  <Document>  (254) 
CHEMBL1201862

>  <Source>  (254) 
PubChem BioAssays

>  <Max Phase>  (254) 
0

>  <#Ro5 Violations>  (254) 
0

>  <Molecular Weight>  (254) 
275.31

>  <Ligand Efficiency BEI>  (254) 
nan

>  <Ligand Efficiency LE>  (254) 
nan

>  <Ligand Efficiency LLE>  (254) 
nan

>  <Ligand Efficiency SEI>  (254) 
nan

>  <ALogP>  (254) 
2.79

>  <Assay Organism>  (254) 
nan

>  <Assay Tissue ChEMBL ID>  (254) 
nan

>  <Assay Tissue Name>  (254) 
nan

>  <Assay Cell Type>  (254) 
nan

>  <Assay Subcellular Fraction>  (254) 
nan

>  <Organism Tax ID>  (254) 
9606

>  <BAO Format ID>  (254) 
BAO_0000019

>  <Published Type>  (254) 
nan

>  <Published Relation>  (254) 
nan

>  <Published Value>  (254) 
nan

>  <Published Units>  (254) 
nan

>  <Canonical Smiles>  (254) 
CNC(=O)c1cc2c(n[nH]c2s1)c3ccccc3F

>  <Data Validity Comment>  (254) 
nan

>  <Document Journal>  (254) 
nan

>  <Document Year>  (254) 
nan

>  <SRC ID>  (254) 
7

>  <UO Units>  (254) 
UO_0000065

>  <Potential Duplicate>  (254) 
False

>  <Class>  (254) 
0

$$$$

     RDKit          2D

 23 27  0  0  0  0  0  0  0  0999 V2000
   -1.6839   -7.2010    0.0000 O   0  0  0  0  0  0  0  0  0  0  0  0
   -1.5271   -5.7092    0.0000 C   0  0  0  0  0  0  0  0  0  0  0  0
   -0.1568   -5.0991    0.0000 N   0  0  0  0  0  0  0  0  0  0  0  0
   -0.0000   -3.6073    0.0000 C   0  0  0  0  0  0  0  0  0  0  0  0
    1.2135   -2.7256    0.0000 S   0  0  0  0  0  0  0  0  0  0  0  0
    0.7500   -1.2990    0.0000 C   0  0  0  0  0  0  0  0  0  0  0  0
    1.5000    0.0000    0.0000 C   0  0  0  0  0  0  0  0  0  0  0  0
    0.7500    1.2990    0.0000 C   0  0  0  0  0  0  0  0  0  0  0  0
   -0.7500    1.2990    0.0000 C   0  0  0  0  0  0  0  0  0  0  0  0
   -1.5000    0.0000    0.0000 C   0  0  0  0  0  0  0  0  0  0  0  0
   -0.7500   -1.2990    0.0000 C   0  0  0  0  0  0  0  0  0  0  0  0
   -1.2135   -2.7256    0.0000 C   0  0  0  0  0  0  0  0  0  0  0  0
   -2.5838   -3.3357    0.0000 C   0  0  0  0  0  0  0  0  0  0  0  0
   -3.9542   -2.7256    0.0000 N   0  0  0  0  0  0  0  0  0  0  0  0
   -4.9579   -3.8403    0.0000 C   0  0  0  0  0  0  0  0  0  0  0  0
   -4.2079   -5.1394    0.0000 N   0  0  0  0  0  0  0  0  0  0  0  0
   -2.7406   -4.8275    0.0000 N   0  0  0  0  0  0  0  0  0  0  0  0
   -6.4496   -3.6835    0.0000 C   0  0  0  0  0  0  0  0  0  0  0  0
   -7.0597   -2.3132    0.0000 C   0  0  0  0  0  0  0  0  0  0  0  0
   -8.5515   -2.1564    0.0000 C   0  0  0  0  0  0  0  0  0  0  0  0
   -9.4332   -3.3700    0.0000 C   0  0  0  0  0  0  0  0  0  0  0  0
   -8.8231   -4.7403    0.0000 C   0  0  0  0  0  0  0  0  0  0  0  0
   -7.3313   -4.8971    0.0000 C   0  0  0  0  0  0  0  0  0  0  0  0
  1  2  2  0
  2  3  1  0
  3  4  1  0
  4  5  1  0
  5  6  1  0
  6  7  1  0
  7  8  1  0
  8  9  1  0
  9 10  1  0
 10 11  1  0
 11 12  1  0
 12 13  1  0
 13 14  2  0
 14 15  1  0
 15 16  2  0
 16 17  1  0
 15 18  1  0
 18 19  2  0
 19 20  1  0
 20 21  2  0
 21 22  1  0
 22 23  2  0
 17  2  1  0
 12  4  2  0
 11  6  2  0
 17 13  1  0
 23 18  1  0
M  END
>  <Molecule>  (255) 
CHEMBL2007592

>  <Standard Type>  (255) 
Ki

>  <Standard Relation>  (255) 
>

>  <Standard Value>  (255) 
1584.89

>  <Standard Units>  (255) 
nM

>  <pChEMBL Value>  (255) 
nan

>  <Comment>  (255) 
inactive

>  <Compound Key>  (255) 
SID103904978

>  <Assay>  (255) 
CHEMBL1963742

>  <Assay Description>  (255) 
PUBCHEM_BIOASSAY: Navigating the Kinome. (Class of assay: other) Panel member name: JAK3

>  <BAO Format>  (255) 
assay format

>  <Target>  (255) 
CHEMBL2148

>  <Target Pref. Name>  (255) 
Tyrosine-protein kinase JAK3

>  <Target Organism>  (255) 
Homo sapiens

>  <Target Type>  (255) 
SINGLE PROTEIN

>  <Document>  (255) 
CHEMBL1201862

>  <Source>  (255) 
PubChem BioAssays

>  <Max Phase>  (255) 
0

>  <#Ro5 Violations>  (255) 
0

>  <Molecular Weight>  (255) 
322.39

>  <Ligand Efficiency BEI>  (255) 
nan

>  <Ligand Efficiency LE>  (255) 
nan

>  <Ligand Efficiency LLE>  (255) 
nan

>  <Ligand Efficiency SEI>  (255) 
nan

>  <ALogP>  (255) 
3.18

>  <Assay Organism>  (255) 
nan

>  <Assay Tissue ChEMBL ID>  (255) 
nan

>  <Assay Tissue Name>  (255) 
nan

>  <Assay Cell Type>  (255) 
nan

>  <Assay Subcellular Fraction>  (255) 
nan

>  <Organism Tax ID>  (255) 
9606

>  <BAO Format ID>  (255) 
BAO_0000019

>  <Published Type>  (255) 
nan

>  <Published Relation>  (255) 
nan

>  <Published Value>  (255) 
nan

>  <Published Units>  (255) 
nan

>  <Canonical Smiles>  (255) 
O=C1Nc2sc3CCCCc3c2c4nc(nn14)c5ccccc5

>  <Data Validity Comment>  (255) 
nan

>  <Document Journal>  (255) 
nan

>  <Document Year>  (255) 
nan

>  <SRC ID>  (255) 
7

>  <UO Units>  (255) 
UO_0000065

>  <Potential Duplicate>  (255) 
False

>  <Class>  (255) 
0

$$$$

     RDKit          2D

 36 40  0  0  0  0  0  0  0  0999 V2000
    0.3943    6.4937    0.0000 C   0  0  0  0  0  0  0  0  0  0  0  0
    0.8578    5.0672    0.0000 N   0  0  0  0  0  0  0  0  0  0  0  0
   -0.0239    3.8536    0.0000 C   0  0  0  0  0  0  0  0  0  0  0  0
    0.8578    2.6401    0.0000 C   0  0  0  0  0  0  0  0  0  0  0  0
    2.2844    3.1036    0.0000 C   0  0  0  0  0  0  0  0  0  0  0  0
    2.2844    4.6036    0.0000 N   0  0  0  0  0  0  0  0  0  0  0  0
    0.3943    1.2135    0.0000 C   0  0  0  0  0  0  0  0  0  0  0  0
    1.2760    0.0000    0.0000 C   0  0  0  0  0  0  0  0  0  0  0  0
    0.3943   -1.2135    0.0000 N   0  0  0  0  0  0  0  0  0  0  0  0
   -1.0323   -0.7500    0.0000 N   0  0  0  0  0  0  0  0  0  0  0  0
   -2.3313   -1.5000    0.0000 C   0  0  0  0  0  0  0  0  0  0  0  0
   -2.3313   -3.0000    0.0000 N   0  0  0  0  0  0  0  0  0  0  0  0
   -3.6304   -0.7500    0.0000 C   0  0  0  0  0  0  0  0  0  0  0  0
   -3.6304    0.7500    0.0000 C   0  0  0  0  0  0  0  0  0  0  0  0
   -2.3313    1.5000    0.0000 N   0  0  0  0  0  0  0  0  0  0  0  0
   -1.0323    0.7500    0.0000 C   0  0  0  0  0  0  0  0  0  0  0  0
   -4.9294   -1.5000    0.0000 C   0  0  0  0  0  0  0  0  0  0  0  0
   -6.2284   -0.7500    0.0000 C   0  0  0  0  0  0  0  0  0  0  0  0
   -7.5275   -1.5000    0.0000 C   0  0  0  0  0  0  0  0  0  0  0  0
   -7.5275   -3.0000    0.0000 C   0  0  0  0  0  0  0  0  0  0  0  0
   -8.8265   -3.7500    0.0000 N   0  0  0  0  0  0  0  0  0  0  0  0
  -10.1256   -3.0000    0.0000 C   0  0  0  0  0  0  0  0  0  0  0  0
  -10.1256   -1.5000    0.0000 O   0  0  0  0  0  0  0  0  0  0  0  0
  -11.4246   -3.7500    0.0000 N   0  0  0  0  0  0  0  0  0  0  0  0
  -12.7236   -3.0000    0.0000 C   0  0  0  0  0  0  0  0  0  0  0  0
  -12.7236   -1.5000    0.0000 C   0  0  0  0  0  0  0  0  0  0  0  0
  -14.0227   -0.7500    0.0000 C   0  0  0  0  0  0  0  0  0  0  0  0
  -15.3217   -1.5000    0.0000 C   0  0  0  0  0  0  0  0  0  0  0  0
  -15.3217   -3.0000    0.0000 C   0  0  0  0  0  0  0  0  0  0  0  0
  -14.0227   -3.7500    0.0000 C   0  0  0  0  0  0  0  0  0  0  0  0
  -16.6207   -3.7500    0.0000 C   0  0  0  0  0  0  0  0  0  0  0  0
  -17.9198   -4.5000    0.0000 F   0  0  0  0  0  0  0  0  0  0  0  0
  -17.3707   -2.4510    0.0000 F   0  0  0  0  0  0  0  0  0  0  0  0
  -15.8707   -5.0490    0.0000 F   0  0  0  0  0  0  0  0  0  0  0  0
   -6.2284   -3.7500    0.0000 C   0  0  0  0  0  0  0  0  0  0  0  0
   -4.9294   -3.0000    0.0000 C   0  0  0  0  0  0  0  0  0  0  0  0
  1  2  1  0
  2  3  1  0
  3  4  2  0
  4  5  1  0
  5  6  2  0
  4  7  1  0
  7  8  1  0
  8  9  2  0
  9 10  1  0
 10 11  1  0
 11 12  1  0
 11 13  2  0
 13 14  1  0
 14 15  2  0
 15 16  1  0
 13 17  1  0
 17 18  2  0
 18 19  1  0
 19 20  2  0
 20 21  1  0
 21 22  1  0
 22 23  2  0
 22 24  1  0
 24 25  1  0
 25 26  2  0
 26 27  1  0
 27 28  2  0
 28 29  1  0
 29 30  2  0
 29 31  1  0
 31 32  1  0
 31 33  1  0
 31 34  1  0
 20 35  1  0
 35 36  2  0
  6  2  1  0
 16  7  2  0
 16 10  1  0
 36 17  1  0
 30 25  1  0
M  END
>  <Molecule>  (256) 
CHEMBL1988717

>  <Standard Type>  (256) 
Ki

>  <Standard Relation>  (256) 
=

>  <Standard Value>  (256) 
1000.0

>  <Standard Units>  (256) 
nM

>  <pChEMBL Value>  (256) 
6.0

>  <Comment>  (256) 
active

>  <Compound Key>  (256) 
SID103904289

>  <Assay>  (256) 
CHEMBL1963742

>  <Assay Description>  (256) 
PUBCHEM_BIOASSAY: Navigating the Kinome. (Class of assay: other) Panel member name: JAK3

>  <BAO Format>  (256) 
assay format

>  <Target>  (256) 
CHEMBL2148

>  <Target Pref. Name>  (256) 
Tyrosine-protein kinase JAK3

>  <Target Organism>  (256) 
Homo sapiens

>  <Target Type>  (256) 
SINGLE PROTEIN

>  <Document>  (256) 
CHEMBL1201862

>  <Source>  (256) 
PubChem BioAssays

>  <Max Phase>  (256) 
0

>  <#Ro5 Violations>  (256) 
1

>  <Molecular Weight>  (256) 
492.47

>  <Ligand Efficiency BEI>  (256) 
nan

>  <Ligand Efficiency LE>  (256) 
nan

>  <Ligand Efficiency LLE>  (256) 
nan

>  <Ligand Efficiency SEI>  (256) 
nan

>  <ALogP>  (256) 
5.04

>  <Assay Organism>  (256) 
nan

>  <Assay Tissue ChEMBL ID>  (256) 
nan

>  <Assay Tissue Name>  (256) 
nan

>  <Assay Cell Type>  (256) 
nan

>  <Assay Subcellular Fraction>  (256) 
nan

>  <Organism Tax ID>  (256) 
9606

>  <BAO Format ID>  (256) 
BAO_0000019

>  <Published Type>  (256) 
nan

>  <Published Relation>  (256) 
nan

>  <Published Value>  (256) 
nan

>  <Published Units>  (256) 
nan

>  <Canonical Smiles>  (256) 
Cn1cc(cn1)c2cnn3c(N)c(cnc23)c4ccc(NC(=O)Nc5cccc(c5)C(F)(F)F)cc4

>  <Data Validity Comment>  (256) 
nan

>  <Document Journal>  (256) 
nan

>  <Document Year>  (256) 
nan

>  <SRC ID>  (256) 
7

>  <UO Units>  (256) 
UO_0000065

>  <Potential Duplicate>  (256) 
False

>  <Class>  (256) 
1

$$$$

     RDKit          2D

 29 32  0  0  0  0  0  0  0  0999 V2000
    5.2500   -1.2990    0.0000 O   0  0  0  0  0  0  0  0  0  0  0  0
    3.7500   -1.2990    0.0000 C   0  0  0  0  0  0  0  0  0  0  0  0
    3.0000    0.0000    0.0000 C   0  0  0  0  0  0  0  0  0  0  0  0
    3.7500    1.2990    0.0000 O   0  0  0  0  0  0  0  0  0  0  0  0
    1.5000    0.0000    0.0000 N   0  0  0  0  0  0  0  0  0  0  0  0
    0.7500   -1.2990    0.0000 C   0  0  0  0  0  0  0  0  0  0  0  0
   -0.7500   -1.2990    0.0000 C   0  0  0  0  0  0  0  0  0  0  0  0
   -1.5000    0.0000    0.0000 C   0  0  0  0  0  0  0  0  0  0  0  0
   -0.7500    1.2990    0.0000 C   0  0  0  0  0  0  0  0  0  0  0  0
    0.7500    1.2990    0.0000 C   0  0  0  0  0  0  0  0  0  0  0  0
   -3.0000    0.0000    0.0000 C   0  0  0  0  0  0  0  0  0  0  0  0
   -3.8817   -1.2135    0.0000 N   0  0  0  0  0  0  0  0  0  0  0  0
   -5.3083   -0.7500    0.0000 N   0  0  0  0  0  0  0  0  0  0  0  0
   -5.3083    0.7500    0.0000 C   0  0  0  0  0  0  0  0  0  0  0  0
   -6.5218    1.6317    0.0000 C   0  0  0  0  0  0  0  0  0  0  0  0
   -6.3650    3.1235    0.0000 C   0  0  0  0  0  0  0  0  0  0  0  0
   -7.5785    4.0051    0.0000 C   0  0  0  0  0  0  0  0  0  0  0  0
   -8.9488    3.3950    0.0000 C   0  0  0  0  0  0  0  0  0  0  0  0
  -10.1624    4.2767    0.0000 Cl  0  0  0  0  0  0  0  0  0  0  0  0
   -9.1056    1.9033    0.0000 C   0  0  0  0  0  0  0  0  0  0  0  0
   -7.8921    1.0216    0.0000 C   0  0  0  0  0  0  0  0  0  0  0  0
   -8.0489   -0.4702    0.0000 F   0  0  0  0  0  0  0  0  0  0  0  0
   -3.8817    1.2135    0.0000 C   0  0  0  0  0  0  0  0  0  0  0  0
   -3.4182    2.6401    0.0000 C   0  0  0  0  0  0  0  0  0  0  0  0
   -1.9509    2.9520    0.0000 C   0  0  0  0  0  0  0  0  0  0  0  0
   -1.4874    4.3786    0.0000 C   0  0  0  0  0  0  0  0  0  0  0  0
   -2.4911    5.4933    0.0000 N   0  0  0  0  0  0  0  0  0  0  0  0
   -3.9583    5.1814    0.0000 C   0  0  0  0  0  0  0  0  0  0  0  0
   -4.4218    3.7548    0.0000 N   0  0  0  0  0  0  0  0  0  0  0  0
  1  2  1  0
  2  3  1  0
  3  4  2  0
  3  5  1  0
  5  6  1  0
  6  7  1  0
  7  8  1  0
  8  9  1  0
  9 10  1  0
  8 11  1  0
 11 12  1  0
 12 13  1  0
 13 14  2  0
 14 15  1  0
 15 16  2  0
 16 17  1  0
 17 18  2  0
 18 19  1  0
 18 20  1  0
 20 21  2  0
 21 22  1  0
 14 23  1  0
 23 24  1  0
 24 25  2  0
 25 26  1  0
 26 27  2  0
 27 28  1  0
 28 29  2  0
 10  5  1  0
 23 11  2  0
 21 15  1  0
 29 24  1  0
M  END
>  <Molecule>  (257) 
CHEMBL1614705

>  <Standard Type>  (257) 
Ki

>  <Standard Relation>  (257) 
>

>  <Standard Value>  (257) 
1584.89

>  <Standard Units>  (257) 
nM

>  <pChEMBL Value>  (257) 
nan

>  <Comment>  (257) 
inactive

>  <Compound Key>  (257) 
SID103905593

>  <Assay>  (257) 
CHEMBL1963742

>  <Assay Description>  (257) 
PUBCHEM_BIOASSAY: Navigating the Kinome. (Class of assay: other) Panel member name: JAK3

>  <BAO Format>  (257) 
assay format

>  <Target>  (257) 
CHEMBL2148

>  <Target Pref. Name>  (257) 
Tyrosine-protein kinase JAK3

>  <Target Organism>  (257) 
Homo sapiens

>  <Target Type>  (257) 
SINGLE PROTEIN

>  <Document>  (257) 
CHEMBL1201862

>  <Source>  (257) 
PubChem BioAssays

>  <Max Phase>  (257) 
0

>  <#Ro5 Violations>  (257) 
0

>  <Molecular Weight>  (257) 
415.86

>  <Ligand Efficiency BEI>  (257) 
nan

>  <Ligand Efficiency LE>  (257) 
nan

>  <Ligand Efficiency LLE>  (257) 
nan

>  <Ligand Efficiency SEI>  (257) 
nan

>  <ALogP>  (257) 
3.02

>  <Assay Organism>  (257) 
nan

>  <Assay Tissue ChEMBL ID>  (257) 
nan

>  <Assay Tissue Name>  (257) 
nan

>  <Assay Cell Type>  (257) 
nan

>  <Assay Subcellular Fraction>  (257) 
nan

>  <Organism Tax ID>  (257) 
9606

>  <BAO Format ID>  (257) 
BAO_0000019

>  <Published Type>  (257) 
nan

>  <Published Relation>  (257) 
nan

>  <Published Value>  (257) 
nan

>  <Published Units>  (257) 
nan

>  <Canonical Smiles>  (257) 
OCC(=O)N1CCC(CC1)c2[nH]nc(c3ccc(Cl)cc3F)c2c4ccncn4

>  <Data Validity Comment>  (257) 
nan

>  <Document Journal>  (257) 
nan

>  <Document Year>  (257) 
nan

>  <SRC ID>  (257) 
7

>  <UO Units>  (257) 
UO_0000065

>  <Potential Duplicate>  (257) 
False

>  <Class>  (257) 
0

$$$$

     RDKit          2D

 22 24  0  0  0  0  0  0  0  0999 V2000
    4.5000   -7.7942    0.0000 C   0  0  0  0  0  0  0  0  0  0  0  0
    3.7500   -6.4952    0.0000 S   0  0  0  0  0  0  0  0  0  0  0  0
    5.0490   -5.7452    0.0000 O   0  0  0  0  0  0  0  0  0  0  0  0
    2.4510   -7.2452    0.0000 O   0  0  0  0  0  0  0  0  0  0  0  0
    3.0000   -5.1962    0.0000 C   0  0  0  0  0  0  0  0  0  0  0  0
    1.5000   -5.1962    0.0000 C   0  0  0  0  0  0  0  0  0  0  0  0
    0.7500   -3.8971    0.0000 C   0  0  0  0  0  0  0  0  0  0  0  0
    1.5000   -2.5981    0.0000 C   0  0  0  0  0  0  0  0  0  0  0  0
    3.0000   -2.5981    0.0000 C   0  0  0  0  0  0  0  0  0  0  0  0
    3.7500   -3.8971    0.0000 C   0  0  0  0  0  0  0  0  0  0  0  0
    0.7500   -1.2990    0.0000 C   0  0  0  0  0  0  0  0  0  0  0  0
    1.5000    0.0000    0.0000 C   0  0  0  0  0  0  0  0  0  0  0  0
    0.7500    1.2990    0.0000 N   0  0  0  0  0  0  0  0  0  0  0  0
   -0.7500    1.2990    0.0000 C   0  0  0  0  0  0  0  0  0  0  0  0
   -1.5000    0.0000    0.0000 C   0  0  0  0  0  0  0  0  0  0  0  0
   -2.9672   -0.3119    0.0000 S   0  0  0  0  0  0  0  0  0  0  0  0
   -3.1240   -1.8037    0.0000 C   0  0  0  0  0  0  0  0  0  0  0  0
   -1.7537   -2.4138    0.0000 C   0  0  0  0  0  0  0  0  0  0  0  0
   -0.7500   -1.2990    0.0000 C   0  0  0  0  0  0  0  0  0  0  0  0
   -4.4231   -2.5537    0.0000 C   0  0  0  0  0  0  0  0  0  0  0  0
   -4.4231   -4.0537    0.0000 O   0  0  0  0  0  0  0  0  0  0  0  0
   -5.7221   -1.8037    0.0000 N   0  0  0  0  0  0  0  0  0  0  0  0
  1  2  1  0
  2  3  2  0
  2  4  2  0
  2  5  1  0
  5  6  2  0
  6  7  1  0
  7  8  2  0
  8  9  1  0
  9 10  2  0
  8 11  1  0
 11 12  2  0
 12 13  1  0
 13 14  2  0
 14 15  1  0
 15 16  1  0
 16 17  1  0
 17 18  2  0
 18 19  1  0
 17 20  1  0
 20 21  2  0
 20 22  1  0
 10  5  1  0
 19 11  1  0
 19 15  2  0
M  END
>  <Molecule>  (258) 
CHEMBL1972362

>  <Standard Type>  (258) 
Ki

>  <Standard Relation>  (258) 
>

>  <Standard Value>  (258) 
1584.89

>  <Standard Units>  (258) 
nM

>  <pChEMBL Value>  (258) 
nan

>  <Comment>  (258) 
inactive

>  <Compound Key>  (258) 
SID103905047

>  <Assay>  (258) 
CHEMBL1963742

>  <Assay Description>  (258) 
PUBCHEM_BIOASSAY: Navigating the Kinome. (Class of assay: other) Panel member name: JAK3

>  <BAO Format>  (258) 
assay format

>  <Target>  (258) 
CHEMBL2148

>  <Target Pref. Name>  (258) 
Tyrosine-protein kinase JAK3

>  <Target Organism>  (258) 
Homo sapiens

>  <Target Type>  (258) 
SINGLE PROTEIN

>  <Document>  (258) 
CHEMBL1201862

>  <Source>  (258) 
PubChem BioAssays

>  <Max Phase>  (258) 
0

>  <#Ro5 Violations>  (258) 
0

>  <Molecular Weight>  (258) 
332.41

>  <Ligand Efficiency BEI>  (258) 
nan

>  <Ligand Efficiency LE>  (258) 
nan

>  <Ligand Efficiency LLE>  (258) 
nan

>  <Ligand Efficiency SEI>  (258) 
nan

>  <ALogP>  (258) 
2.47

>  <Assay Organism>  (258) 
nan

>  <Assay Tissue ChEMBL ID>  (258) 
nan

>  <Assay Tissue Name>  (258) 
nan

>  <Assay Cell Type>  (258) 
nan

>  <Assay Subcellular Fraction>  (258) 
nan

>  <Organism Tax ID>  (258) 
9606

>  <BAO Format ID>  (258) 
BAO_0000019

>  <Published Type>  (258) 
nan

>  <Published Relation>  (258) 
nan

>  <Published Value>  (258) 
nan

>  <Published Units>  (258) 
nan

>  <Canonical Smiles>  (258) 
CS(=O)(=O)c1ccc(cc1)c2cncc3sc(cc23)C(=O)N

>  <Data Validity Comment>  (258) 
nan

>  <Document Journal>  (258) 
nan

>  <Document Year>  (258) 
nan

>  <SRC ID>  (258) 
7

>  <UO Units>  (258) 
UO_0000065

>  <Potential Duplicate>  (258) 
False

>  <Class>  (258) 
0

$$$$

     RDKit          2D

 38 42  0  0  0  0  0  0  0  0999 V2000
    3.1656   -7.4217    0.0000 C   0  0  0  0  0  0  0  0  0  0  0  0
    1.6738   -7.5785    0.0000 N   0  0  0  0  0  0  0  0  0  0  0  0
    0.7921   -6.3650    0.0000 C   0  0  0  0  0  0  0  0  0  0  0  0
    1.4022   -4.9947    0.0000 O   0  0  0  0  0  0  0  0  0  0  0  0
   -0.6996   -6.5218    0.0000 C   0  0  0  0  0  0  0  0  0  0  0  0
   -1.3098   -7.8921    0.0000 C   0  0  0  0  0  0  0  0  0  0  0  0
   -1.5813   -5.3083    0.0000 N   0  0  0  0  0  0  0  0  0  0  0  0
   -1.1178   -3.8817    0.0000 C   0  0  0  0  0  0  0  0  0  0  0  0
   -2.3313   -3.0000    0.0000 C   0  0  0  0  0  0  0  0  0  0  0  0
   -3.5449   -3.8817    0.0000 C   0  0  0  0  0  0  0  0  0  0  0  0
   -3.0813   -5.3083    0.0000 N   0  0  0  0  0  0  0  0  0  0  0  0
   -2.3313   -1.5000    0.0000 C   0  0  0  0  0  0  0  0  0  0  0  0
   -3.6304   -0.7500    0.0000 C   0  0  0  0  0  0  0  0  0  0  0  0
   -3.6304    0.7500    0.0000 N   0  0  0  0  0  0  0  0  0  0  0  0
   -2.3313    1.5000    0.0000 C   0  0  0  0  0  0  0  0  0  0  0  0
   -2.3313    3.0000    0.0000 N   0  0  0  0  0  0  0  0  0  0  0  0
   -1.0323    0.7500    0.0000 C   0  0  0  0  0  0  0  0  0  0  0  0
    0.3943    1.2135    0.0000 C   0  0  0  0  0  0  0  0  0  0  0  0
    1.2760    0.0000    0.0000 C   0  0  0  0  0  0  0  0  0  0  0  0
    0.3943   -1.2135    0.0000 S   0  0  0  0  0  0  0  0  0  0  0  0
   -1.0323   -0.7500    0.0000 C   0  0  0  0  0  0  0  0  0  0  0  0
    0.8578    2.6401    0.0000 C   0  0  0  0  0  0  0  0  0  0  0  0
    2.3250    2.9520    0.0000 C   0  0  0  0  0  0  0  0  0  0  0  0
    2.7886    4.3786    0.0000 C   0  0  0  0  0  0  0  0  0  0  0  0
    1.7849    5.4933    0.0000 C   0  0  0  0  0  0  0  0  0  0  0  0
    2.2484    6.9199    0.0000 N   0  0  0  0  0  0  0  0  0  0  0  0
    3.7156    7.2317    0.0000 C   0  0  0  0  0  0  0  0  0  0  0  0
    4.7193    6.1170    0.0000 O   0  0  0  0  0  0  0  0  0  0  0  0
    4.1791    8.6583    0.0000 N   0  0  0  0  0  0  0  0  0  0  0  0
    5.6464    8.9702    0.0000 C   0  0  0  0  0  0  0  0  0  0  0  0
    6.6501    7.8555    0.0000 C   0  0  0  0  0  0  0  0  0  0  0  0
    8.1173    8.1673    0.0000 C   0  0  0  0  0  0  0  0  0  0  0  0
    8.5808    9.5939    0.0000 C   0  0  0  0  0  0  0  0  0  0  0  0
   10.0480    9.9058    0.0000 C   0  0  0  0  0  0  0  0  0  0  0  0
    7.5771   10.7086    0.0000 C   0  0  0  0  0  0  0  0  0  0  0  0
    6.1099   10.3968    0.0000 C   0  0  0  0  0  0  0  0  0  0  0  0
    0.3177    5.1814    0.0000 C   0  0  0  0  0  0  0  0  0  0  0  0
   -0.1459    3.7548    0.0000 C   0  0  0  0  0  0  0  0  0  0  0  0
  1  2  1  0
  2  3  1  0
  3  4  2  0
  3  5  1  0
  5  6  1  0
  5  7  1  0
  7  8  1  0
  8  9  2  0
  9 10  1  0
 10 11  2  0
  9 12  1  0
 12 13  2  0
 13 14  1  0
 14 15  2  0
 15 16  1  0
 15 17  1  0
 17 18  1  0
 18 19  2  0
 19 20  1  0
 20 21  1  0
 18 22  1  0
 22 23  2  0
 23 24  1  0
 24 25  2  0
 25 26  1  0
 26 27  1  0
 27 28  2  0
 27 29  1  0
 29 30  1  0
 30 31  2  0
 31 32  1  0
 32 33  2  0
 33 34  1  0
 33 35  1  0
 35 36  2  0
 25 37  1  0
 37 38  2  0
 11  7  1  0
 21 12  1  0
 21 17  2  0
 38 22  1  0
 36 30  1  0
M  END
>  <Molecule>  (259) 
CHEMBL1970142

>  <Standard Type>  (259) 
Ki

>  <Standard Relation>  (259) 
>

>  <Standard Value>  (259) 
1584.89

>  <Standard Units>  (259) 
nM

>  <pChEMBL Value>  (259) 
nan

>  <Comment>  (259) 
inactive

>  <Compound Key>  (259) 
SID103904293

>  <Assay>  (259) 
CHEMBL1963742

>  <Assay Description>  (259) 
PUBCHEM_BIOASSAY: Navigating the Kinome. (Class of assay: other) Panel member name: JAK3

>  <BAO Format>  (259) 
assay format

>  <Target>  (259) 
CHEMBL2148

>  <Target Pref. Name>  (259) 
Tyrosine-protein kinase JAK3

>  <Target Organism>  (259) 
Homo sapiens

>  <Target Type>  (259) 
SINGLE PROTEIN

>  <Document>  (259) 
CHEMBL1201862

>  <Source>  (259) 
PubChem BioAssays

>  <Max Phase>  (259) 
0

>  <#Ro5 Violations>  (259) 
2

>  <Molecular Weight>  (259) 
525.64

>  <Ligand Efficiency BEI>  (259) 
nan

>  <Ligand Efficiency LE>  (259) 
nan

>  <Ligand Efficiency LLE>  (259) 
nan

>  <Ligand Efficiency SEI>  (259) 
nan

>  <ALogP>  (259) 
5.67

>  <Assay Organism>  (259) 
nan

>  <Assay Tissue ChEMBL ID>  (259) 
nan

>  <Assay Tissue Name>  (259) 
nan

>  <Assay Cell Type>  (259) 
nan

>  <Assay Subcellular Fraction>  (259) 
nan

>  <Organism Tax ID>  (259) 
9606

>  <BAO Format ID>  (259) 
BAO_0000019

>  <Published Type>  (259) 
nan

>  <Published Relation>  (259) 
nan

>  <Published Value>  (259) 
nan

>  <Published Units>  (259) 
nan

>  <Canonical Smiles>  (259) 
CNC(=O)C(C)n1cc(cn1)c2cnc(N)c3c(csc23)c4ccc(NC(=O)Nc5ccc(C)cc5)cc4

>  <Data Validity Comment>  (259) 
nan

>  <Document Journal>  (259) 
nan

>  <Document Year>  (259) 
nan

>  <SRC ID>  (259) 
7

>  <UO Units>  (259) 
UO_0000065

>  <Potential Duplicate>  (259) 
False

>  <Class>  (259) 
0

$$$$

     RDKit          2D

 20 22  0  0  0  0  0  0  0  0999 V2000
    4.5000    0.0000    0.0000 F   0  0  0  0  0  0  0  0  0  0  0  0
    3.0000    0.0000    0.0000 C   0  0  0  0  0  0  0  0  0  0  0  0
    3.0000   -1.5000    0.0000 F   0  0  0  0  0  0  0  0  0  0  0  0
    3.0000    1.5000    0.0000 F   0  0  0  0  0  0  0  0  0  0  0  0
    1.5000    0.0000    0.0000 C   0  0  0  0  0  0  0  0  0  0  0  0
    0.7500   -1.2990    0.0000 C   0  0  0  0  0  0  0  0  0  0  0  0
   -0.7500   -1.2990    0.0000 C   0  0  0  0  0  0  0  0  0  0  0  0
   -1.5000    0.0000    0.0000 C   0  0  0  0  0  0  0  0  0  0  0  0
   -3.0000    0.0000    0.0000 C   0  0  0  0  0  0  0  0  0  0  0  0
   -3.7500   -1.2990    0.0000 O   0  0  0  0  0  0  0  0  0  0  0  0
   -3.7500    1.2990    0.0000 C   0  0  0  0  0  0  0  0  0  0  0  0
   -3.0000    2.5981    0.0000 C   0  0  0  0  0  0  0  0  0  0  0  0
   -3.7500    3.8971    0.0000 C   0  0  0  0  0  0  0  0  0  0  0  0
   -5.2500    3.8971    0.0000 C   0  0  0  0  0  0  0  0  0  0  0  0
   -6.0000    2.5981    0.0000 C   0  0  0  0  0  0  0  0  0  0  0  0
   -5.2500    1.2990    0.0000 C   0  0  0  0  0  0  0  0  0  0  0  0
   -6.0000    0.0000    0.0000 O   0  0  0  0  0  0  0  0  0  0  0  0
   -1.5000    2.5981    0.0000 O   0  0  0  0  0  0  0  0  0  0  0  0
   -0.7500    1.2990    0.0000 C   0  0  0  0  0  0  0  0  0  0  0  0
    0.7500    1.2990    0.0000 C   0  0  0  0  0  0  0  0  0  0  0  0
  1  2  1  0
  2  3  1  0
  2  4  1  0
  2  5  1  0
  5  6  2  0
  6  7  1  0
  7  8  2  0
  8  9  1  0
  9 10  2  0
  9 11  1  0
 11 12  2  0
 12 13  1  0
 13 14  1  0
 14 15  1  0
 15 16  1  0
 16 17  2  0
 12 18  1  0
 18 19  1  0
 19 20  2  0
 20  5  1  0
 19  8  1  0
 16 11  1  0
M  END
>  <Molecule>  (260) 
CHEMBL2006493

>  <Standard Type>  (260) 
Ki

>  <Standard Relation>  (260) 
>

>  <Standard Value>  (260) 
1584.89

>  <Standard Units>  (260) 
nM

>  <pChEMBL Value>  (260) 
nan

>  <Comment>  (260) 
inactive

>  <Compound Key>  (260) 
SID103905619

>  <Assay>  (260) 
CHEMBL1963742

>  <Assay Description>  (260) 
PUBCHEM_BIOASSAY: Navigating the Kinome. (Class of assay: other) Panel member name: JAK3

>  <BAO Format>  (260) 
assay format

>  <Target>  (260) 
CHEMBL2148

>  <Target Pref. Name>  (260) 
Tyrosine-protein kinase JAK3

>  <Target Organism>  (260) 
Homo sapiens

>  <Target Type>  (260) 
SINGLE PROTEIN

>  <Document>  (260) 
CHEMBL1201862

>  <Source>  (260) 
PubChem BioAssays

>  <Max Phase>  (260) 
0

>  <#Ro5 Violations>  (260) 
0

>  <Molecular Weight>  (260) 
282.22

>  <Ligand Efficiency BEI>  (260) 
nan

>  <Ligand Efficiency LE>  (260) 
nan

>  <Ligand Efficiency LLE>  (260) 
nan

>  <Ligand Efficiency SEI>  (260) 
nan

>  <ALogP>  (260) 
3.33

>  <Assay Organism>  (260) 
nan

>  <Assay Tissue ChEMBL ID>  (260) 
nan

>  <Assay Tissue Name>  (260) 
nan

>  <Assay Cell Type>  (260) 
nan

>  <Assay Subcellular Fraction>  (260) 
nan

>  <Organism Tax ID>  (260) 
9606

>  <BAO Format ID>  (260) 
BAO_0000019

>  <Published Type>  (260) 
nan

>  <Published Relation>  (260) 
nan

>  <Published Value>  (260) 
nan

>  <Published Units>  (260) 
nan

>  <Canonical Smiles>  (260) 
FC(F)(F)c1ccc2C(=O)C3=C(CCCC3=O)Oc2c1

>  <Data Validity Comment>  (260) 
nan

>  <Document Journal>  (260) 
nan

>  <Document Year>  (260) 
nan

>  <SRC ID>  (260) 
7

>  <UO Units>  (260) 
UO_0000065

>  <Potential Duplicate>  (260) 
False

>  <Class>  (260) 
0

$$$$

     RDKit          2D

 44 48  0  0  0  0  0  0  0  0999 V2000
    3.0000    0.0000    0.0000 C   0  0  0  0  0  0  0  0  0  0  0  0
    1.5000    0.0000    0.0000 N   0  0  0  0  0  0  0  0  0  0  0  0
    0.7500   -1.2990    0.0000 C   0  0  0  0  0  0  0  0  0  0  0  0
   -0.7500   -1.2990    0.0000 C   0  0  0  0  0  0  0  0  0  0  0  0
   -1.5000    0.0000    0.0000 C   0  0  0  0  0  0  0  0  0  0  0  0
   -0.7500    1.2990    0.0000 C   0  0  0  0  0  0  0  0  0  0  0  0
   -1.5000    2.5981    0.0000 N   0  0  0  0  0  0  0  0  0  0  0  0
   -0.7500    3.8971    0.0000 C   0  0  0  0  0  0  0  0  0  0  0  0
    0.7500    3.8971    0.0000 C   0  0  0  0  0  0  0  0  0  0  0  0
    1.5000    5.1962    0.0000 C   0  0  0  0  0  0  0  0  0  0  0  0
    0.7500    6.4952    0.0000 C   0  0  0  0  0  0  0  0  0  0  0  0
   -0.7500    6.4952    0.0000 C   0  0  0  0  0  0  0  0  0  0  0  0
   -1.5000    5.1962    0.0000 N   0  0  0  0  0  0  0  0  0  0  0  0
    1.5000    7.7942    0.0000 C   0  0  0  0  0  0  0  0  0  0  0  0
    0.7500    9.0933    0.0000 O   0  0  0  0  0  0  0  0  0  0  0  0
    3.0000    7.7942    0.0000 N   0  0  0  0  0  0  0  0  0  0  0  0
    3.7500    6.4952    0.0000 C   0  0  0  0  0  0  0  0  0  0  0  0
    5.2500    6.4952    0.0000 C   0  0  0  0  0  0  0  0  0  0  0  0
    6.0000    7.7942    0.0000 O   0  0  0  0  0  0  0  0  0  0  0  0
    5.2500    9.0933    0.0000 C   0  0  0  0  0  0  0  0  0  0  0  0
    3.7500    9.0933    0.0000 C   0  0  0  0  0  0  0  0  0  0  0  0
    0.7500    1.2990    0.0000 C   0  0  0  0  0  0  0  0  0  0  0  0
    1.5000    2.5981    0.0000 O   0  0  0  0  0  0  0  0  0  0  0  0
   -1.5000   -2.5981    0.0000 C   0  0  0  0  0  0  0  0  0  0  0  0
   -3.0000   -2.5981    0.0000 C   0  0  0  0  0  0  0  0  0  0  0  0
   -3.7500   -3.8971    0.0000 C   0  0  0  0  0  0  0  0  0  0  0  0
   -3.0000   -5.1962    0.0000 C   0  0  0  0  0  0  0  0  0  0  0  0
   -1.5000   -5.1962    0.0000 C   0  0  0  0  0  0  0  0  0  0  0  0
   -0.7500   -6.4952    0.0000 N   0  0  0  0  0  0  0  0  0  0  0  0
   -1.5000   -7.7942    0.0000 C   0  0  0  0  0  0  0  0  0  0  0  0
   -3.0000   -7.7942    0.0000 O   0  0  0  0  0  0  0  0  0  0  0  0
   -0.7500   -9.0933    0.0000 C   0  0  0  0  0  0  0  0  0  0  0  0
   -1.5000  -10.3923    0.0000 C   0  0  0  0  0  0  0  0  0  0  0  0
   -0.7500  -11.6913    0.0000 C   0  0  0  0  0  0  0  0  0  0  0  0
    0.7500  -11.6913    0.0000 C   0  0  0  0  0  0  0  0  0  0  0  0
    1.5000  -10.3923    0.0000 C   0  0  0  0  0  0  0  0  0  0  0  0
    0.7500   -9.0933    0.0000 C   0  0  0  0  0  0  0  0  0  0  0  0
    1.5000  -12.9904    0.0000 C   0  0  0  0  0  0  0  0  0  0  0  0
    0.2010  -13.7404    0.0000 C   0  0  0  0  0  0  0  0  0  0  0  0
    2.7990  -12.2404    0.0000 C   0  0  0  0  0  0  0  0  0  0  0  0
    2.2500  -14.2894    0.0000 C   0  0  0  0  0  0  0  0  0  0  0  0
   -0.7500   -3.8971    0.0000 C   0  0  0  0  0  0  0  0  0  0  0  0
    0.7500   -3.8971    0.0000 C   0  0  0  0  0  0  0  0  0  0  0  0
    1.5000   -5.1962    0.0000 O   0  0  0  0  0  0  0  0  0  0  0  0
  1  2  1  0
  2  3  1  0
  3  4  2  0
  4  5  1  0
  5  6  2  0
  6  7  1  0
  7  8  1  0
  8  9  2  0
  9 10  1  0
 10 11  2  0
 11 12  1  0
 12 13  2  0
 11 14  1  0
 14 15  2  0
 14 16  1  0
 16 17  1  0
 17 18  1  0
 18 19  1  0
 19 20  1  0
 20 21  1  0
  6 22  1  0
 22 23  2  0
  4 24  1  0
 24 25  2  0
 25 26  1  0
 26 27  2  0
 27 28  1  0
 28 29  1  0
 29 30  1  0
 30 31  2  0
 30 32  1  0
 32 33  2  0
 33 34  1  0
 34 35  2  0
 35 36  1  0
 36 37  2  0
 35 38  1  0
 38 39  1  0
 38 40  1  0
 38 41  1  0
 28 42  2  0
 42 43  1  0
 43 44  1  0
 22  2  1  0
 13  8  1  0
 21 16  1  0
 42 24  1  0
 37 32  1  0
M  END
>  <Molecule>  (261) 
CHEMBL2001584

>  <Standard Type>  (261) 
Ki

>  <Standard Relation>  (261) 
>

>  <Standard Value>  (261) 
5011.87

>  <Standard Units>  (261) 
nM

>  <pChEMBL Value>  (261) 
nan

>  <Comment>  (261) 
inactive

>  <Compound Key>  (261) 
SID103905556

>  <Assay>  (261) 
CHEMBL1963742

>  <Assay Description>  (261) 
PUBCHEM_BIOASSAY: Navigating the Kinome. (Class of assay: other) Panel member name: JAK3

>  <BAO Format>  (261) 
assay format

>  <Target>  (261) 
CHEMBL2148

>  <Target Pref. Name>  (261) 
Tyrosine-protein kinase JAK3

>  <Target Organism>  (261) 
Homo sapiens

>  <Target Type>  (261) 
SINGLE PROTEIN

>  <Document>  (261) 
CHEMBL1201862

>  <Source>  (261) 
PubChem BioAssays

>  <Max Phase>  (261) 
0

>  <#Ro5 Violations>  (261) 
1

>  <Molecular Weight>  (261) 
595.7

>  <Ligand Efficiency BEI>  (261) 
nan

>  <Ligand Efficiency LE>  (261) 
nan

>  <Ligand Efficiency LLE>  (261) 
nan

>  <Ligand Efficiency SEI>  (261) 
nan

>  <ALogP>  (261) 
4.71

>  <Assay Organism>  (261) 
nan

>  <Assay Tissue ChEMBL ID>  (261) 
nan

>  <Assay Tissue Name>  (261) 
nan

>  <Assay Cell Type>  (261) 
nan

>  <Assay Subcellular Fraction>  (261) 
nan

>  <Organism Tax ID>  (261) 
9606

>  <BAO Format ID>  (261) 
BAO_0000019

>  <Published Type>  (261) 
nan

>  <Published Relation>  (261) 
nan

>  <Published Value>  (261) 
nan

>  <Published Units>  (261) 
nan

>  <Canonical Smiles>  (261) 
CN1C=C(C=C(Nc2ccc(cn2)C(=O)N3CCOCC3)C1=O)c4cccc(NC(=O)c5ccc(cc5)C(C)(C)C)c4CO

>  <Data Validity Comment>  (261) 
nan

>  <Document Journal>  (261) 
nan

>  <Document Year>  (261) 
nan

>  <SRC ID>  (261) 
7

>  <UO Units>  (261) 
UO_0000065

>  <Potential Duplicate>  (261) 
False

>  <Class>  (261) 
0

$$$$

     RDKit          2D

 27 29  0  0  0  0  0  0  0  0999 V2000
  -14.2500    6.4952    0.0000 Br  0  0  0  0  0  0  0  0  0  0  0  0
  -13.5000    5.1962    0.0000 C   0  0  0  0  0  0  0  0  0  0  0  0
  -12.0000    5.1962    0.0000 C   0  0  0  0  0  0  0  0  0  0  0  0
  -11.2500    3.8971    0.0000 C   0  0  0  0  0  0  0  0  0  0  0  0
  -12.0000    2.5981    0.0000 C   0  0  0  0  0  0  0  0  0  0  0  0
  -11.2500    1.2990    0.0000 C   0  0  0  0  0  0  0  0  0  0  0  0
   -9.7500    1.2990    0.0000 C   0  0  0  0  0  0  0  0  0  0  0  0
   -9.0000    0.0000    0.0000 C   0  0  0  0  0  0  0  0  0  0  0  0
   -7.5000    0.0000    0.0000 N   0  0  0  0  0  0  0  0  0  0  0  0
   -6.7500   -1.2990    0.0000 C   0  0  0  0  0  0  0  0  0  0  0  0
   -5.2500   -1.2990    0.0000 C   0  0  0  0  0  0  0  0  0  0  0  0
   -4.5000   -2.5981    0.0000 N   0  0  0  0  0  0  0  0  0  0  0  0
   -3.0000   -2.5981    0.0000 S   0  0  0  0  0  0  0  0  0  0  0  0
   -3.0000   -4.0981    0.0000 O   0  0  0  0  0  0  0  0  0  0  0  0
   -3.0000   -1.0981    0.0000 O   0  0  0  0  0  0  0  0  0  0  0  0
   -1.5000   -2.5981    0.0000 C   0  0  0  0  0  0  0  0  0  0  0  0
   -0.7500   -3.8971    0.0000 C   0  0  0  0  0  0  0  0  0  0  0  0
    0.7500   -3.8971    0.0000 C   0  0  0  0  0  0  0  0  0  0  0  0
    1.5000   -2.5981    0.0000 C   0  0  0  0  0  0  0  0  0  0  0  0
    0.7500   -1.2990    0.0000 C   0  0  0  0  0  0  0  0  0  0  0  0
    1.5000    0.0000    0.0000 C   0  0  0  0  0  0  0  0  0  0  0  0
    0.7500    1.2990    0.0000 N   0  0  0  0  0  0  0  0  0  0  0  0
   -0.7500    1.2990    0.0000 C   0  0  0  0  0  0  0  0  0  0  0  0
   -1.5000    0.0000    0.0000 C   0  0  0  0  0  0  0  0  0  0  0  0
   -0.7500   -1.2990    0.0000 C   0  0  0  0  0  0  0  0  0  0  0  0
  -13.5000    2.5981    0.0000 C   0  0  0  0  0  0  0  0  0  0  0  0
  -14.2500    3.8971    0.0000 C   0  0  0  0  0  0  0  0  0  0  0  0
  1  2  1  0
  2  3  2  0
  3  4  1  0
  4  5  2  0
  5  6  1  0
  6  7  2  3
  7  8  1  0
  8  9  1  0
  9 10  1  0
 10 11  1  0
 11 12  1  0
 12 13  1  0
 13 14  2  0
 13 15  2  0
 13 16  1  0
 16 17  2  0
 17 18  1  0
 18 19  2  0
 19 20  1  0
 20 21  2  0
 21 22  1  0
 22 23  2  0
 23 24  1  0
 24 25  2  0
  5 26  1  0
 26 27  2  0
 27  2  1  0
 25 16  1  0
 25 20  1  0
M  END
>  <Molecule>  (262) 
CHEMBL1987756

>  <Standard Type>  (262) 
Ki

>  <Standard Relation>  (262) 
>

>  <Standard Value>  (262) 
1584.89

>  <Standard Units>  (262) 
nM

>  <pChEMBL Value>  (262) 
nan

>  <Comment>  (262) 
inactive

>  <Compound Key>  (262) 
SID103905082

>  <Assay>  (262) 
CHEMBL1963742

>  <Assay Description>  (262) 
PUBCHEM_BIOASSAY: Navigating the Kinome. (Class of assay: other) Panel member name: JAK3

>  <BAO Format>  (262) 
assay format

>  <Target>  (262) 
CHEMBL2148

>  <Target Pref. Name>  (262) 
Tyrosine-protein kinase JAK3

>  <Target Organism>  (262) 
Homo sapiens

>  <Target Type>  (262) 
SINGLE PROTEIN

>  <Document>  (262) 
CHEMBL1201862

>  <Source>  (262) 
PubChem BioAssays

>  <Max Phase>  (262) 
0

>  <#Ro5 Violations>  (262) 
0

>  <Molecular Weight>  (262) 
446.37

>  <Ligand Efficiency BEI>  (262) 
nan

>  <Ligand Efficiency LE>  (262) 
nan

>  <Ligand Efficiency LLE>  (262) 
nan

>  <Ligand Efficiency SEI>  (262) 
nan

>  <ALogP>  (262) 
3.58

>  <Assay Organism>  (262) 
nan

>  <Assay Tissue ChEMBL ID>  (262) 
nan

>  <Assay Tissue Name>  (262) 
nan

>  <Assay Cell Type>  (262) 
nan

>  <Assay Subcellular Fraction>  (262) 
nan

>  <Organism Tax ID>  (262) 
9606

>  <BAO Format ID>  (262) 
BAO_0000019

>  <Published Type>  (262) 
nan

>  <Published Relation>  (262) 
nan

>  <Published Value>  (262) 
nan

>  <Published Units>  (262) 
nan

>  <Canonical Smiles>  (262) 
Brc1ccc(C=CCNCCNS(=O)(=O)c2cccc3cnccc23)cc1

>  <Data Validity Comment>  (262) 
nan

>  <Document Journal>  (262) 
nan

>  <Document Year>  (262) 
nan

>  <SRC ID>  (262) 
7

>  <UO Units>  (262) 
UO_0000065

>  <Potential Duplicate>  (262) 
False

>  <Class>  (262) 
0

$$$$

     RDKit          2D

 18 20  0  0  0  0  0  0  0  0999 V2000
    3.0000    0.0000    0.0000 N   0  0  0  0  0  0  0  0  0  0  0  0
    1.5000    0.0000    0.0000 C   0  0  0  0  0  0  0  0  0  0  0  0
    0.7500   -1.2990    0.0000 N   0  0  0  0  0  0  0  0  0  0  0  0
   -0.7500   -1.2990    0.0000 C   0  0  0  0  0  0  0  0  0  0  0  0
   -1.5000    0.0000    0.0000 N   0  0  0  0  0  0  0  0  0  0  0  0
   -0.7500    1.2990    0.0000 C   0  0  0  0  0  0  0  0  0  0  0  0
    0.7500    1.2990    0.0000 C   0  0  0  0  0  0  0  0  0  0  0  0
    1.2135    2.7256    0.0000 C   0  0  0  0  0  0  0  0  0  0  0  0
    2.6401    3.1891    0.0000 I   0  0  0  0  0  0  0  0  0  0  0  0
    0.0000    3.6073    0.0000 N   0  0  0  0  0  0  0  0  0  0  0  0
   -1.2135    2.7256    0.0000 N   0  0  0  0  0  0  0  0  0  0  0  0
   -2.6401    3.1891    0.0000 C   0  0  0  0  0  0  0  0  0  0  0  0
   -2.9520    4.6564    0.0000 C   0  0  0  0  0  0  0  0  0  0  0  0
   -4.3786    5.1199    0.0000 C   0  0  0  0  0  0  0  0  0  0  0  0
   -5.4933    4.1162    0.0000 C   0  0  0  0  0  0  0  0  0  0  0  0
   -6.9199    4.5797    0.0000 O   0  0  0  0  0  0  0  0  0  0  0  0
   -5.1814    2.6490    0.0000 C   0  0  0  0  0  0  0  0  0  0  0  0
   -3.7548    2.1855    0.0000 C   0  0  0  0  0  0  0  0  0  0  0  0
  1  2  1  0
  2  3  2  0
  3  4  1  0
  4  5  2  0
  5  6  1  0
  6  7  2  0
  7  8  1  0
  8  9  1  0
  8 10  2  0
 10 11  1  0
 11 12  1  0
 12 13  1  0
 13 14  1  0
 14 15  1  0
 15 16  1  0
 15 17  1  0
 17 18  1  0
  7  2  1  0
 11  6  1  0
 18 12  1  0
M  END
>  <Molecule>  (263) 
CHEMBL1996791

>  <Standard Type>  (263) 
Ki

>  <Standard Relation>  (263) 
>

>  <Standard Value>  (263) 
1584.89

>  <Standard Units>  (263) 
nM

>  <pChEMBL Value>  (263) 
nan

>  <Comment>  (263) 
inactive

>  <Compound Key>  (263) 
SID103904789

>  <Assay>  (263) 
CHEMBL1963742

>  <Assay Description>  (263) 
PUBCHEM_BIOASSAY: Navigating the Kinome. (Class of assay: other) Panel member name: JAK3

>  <BAO Format>  (263) 
assay format

>  <Target>  (263) 
CHEMBL2148

>  <Target Pref. Name>  (263) 
Tyrosine-protein kinase JAK3

>  <Target Organism>  (263) 
Homo sapiens

>  <Target Type>  (263) 
SINGLE PROTEIN

>  <Document>  (263) 
CHEMBL1201862

>  <Source>  (263) 
PubChem BioAssays

>  <Max Phase>  (263) 
0

>  <#Ro5 Violations>  (263) 
0

>  <Molecular Weight>  (263) 
359.17

>  <Ligand Efficiency BEI>  (263) 
nan

>  <Ligand Efficiency LE>  (263) 
nan

>  <Ligand Efficiency LLE>  (263) 
nan

>  <Ligand Efficiency SEI>  (263) 
nan

>  <ALogP>  (263) 
1.49

>  <Assay Organism>  (263) 
nan

>  <Assay Tissue ChEMBL ID>  (263) 
nan

>  <Assay Tissue Name>  (263) 
nan

>  <Assay Cell Type>  (263) 
nan

>  <Assay Subcellular Fraction>  (263) 
nan

>  <Organism Tax ID>  (263) 
9606

>  <BAO Format ID>  (263) 
BAO_0000019

>  <Published Type>  (263) 
nan

>  <Published Relation>  (263) 
nan

>  <Published Value>  (263) 
nan

>  <Published Units>  (263) 
nan

>  <Canonical Smiles>  (263) 
Nc1ncnc2c1c(I)nn2C3CCC(O)CC3

>  <Data Validity Comment>  (263) 
nan

>  <Document Journal>  (263) 
nan

>  <Document Year>  (263) 
nan

>  <SRC ID>  (263) 
7

>  <UO Units>  (263) 
UO_0000065

>  <Potential Duplicate>  (263) 
False

>  <Class>  (263) 
0

$$$$

     RDKit          2D

 23 25  0  0  0  0  0  0  0  0999 V2000
   -6.0953    1.9404    0.0000 C   0  0  0  0  0  0  0  0  0  0  0  0
   -7.0990    0.8256    0.0000 C   0  0  0  0  0  0  0  0  0  0  0  0
   -8.1027   -0.2891    0.0000 C   0  0  0  0  0  0  0  0  0  0  0  0
   -8.2137    1.8293    0.0000 C   0  0  0  0  0  0  0  0  0  0  0  0
   -9.6403    1.3658    0.0000 N   0  0  0  0  0  0  0  0  0  0  0  0
   -5.9843   -0.1781    0.0000 C   0  0  0  0  0  0  0  0  0  0  0  0
   -6.2961   -1.6453    0.0000 N   0  0  0  0  0  0  0  0  0  0  0  0
   -5.1814   -2.6490    0.0000 C   0  0  0  0  0  0  0  0  0  0  0  0
   -3.7548   -2.1855    0.0000 C   0  0  0  0  0  0  0  0  0  0  0  0
   -2.6401   -3.1891    0.0000 C   0  0  0  0  0  0  0  0  0  0  0  0
   -2.9520   -4.6564    0.0000 C   0  0  0  0  0  0  0  0  0  0  0  0
   -4.3786   -5.1199    0.0000 C   0  0  0  0  0  0  0  0  0  0  0  0
   -4.6904   -6.5871    0.0000 F   0  0  0  0  0  0  0  0  0  0  0  0
   -5.4933   -4.1162    0.0000 N   0  0  0  0  0  0  0  0  0  0  0  0
   -1.2135   -2.7256    0.0000 C   0  0  0  0  0  0  0  0  0  0  0  0
    0.0000   -3.6073    0.0000 C   0  0  0  0  0  0  0  0  0  0  0  0
    1.2135   -2.7256    0.0000 N   0  0  0  0  0  0  0  0  0  0  0  0
    0.7500   -1.2990    0.0000 C   0  0  0  0  0  0  0  0  0  0  0  0
    1.5000    0.0000    0.0000 N   0  0  0  0  0  0  0  0  0  0  0  0
    0.7500    1.2990    0.0000 C   0  0  0  0  0  0  0  0  0  0  0  0
   -0.7500    1.2990    0.0000 C   0  0  0  0  0  0  0  0  0  0  0  0
   -1.5000    0.0000    0.0000 C   0  0  0  0  0  0  0  0  0  0  0  0
   -0.7500   -1.2990    0.0000 C   0  0  0  0  0  0  0  0  0  0  0  0
  1  2  1  0
  2  3  1  0
  2  4  1  0
  4  5  1  0
  2  6  1  0
  6  7  1  0
  7  8  1  0
  8  9  2  0
  9 10  1  0
 10 11  2  0
 11 12  1  0
 12 13  1  0
 12 14  2  0
 10 15  1  0
 15 16  2  0
 16 17  1  0
 17 18  1  0
 18 19  2  0
 19 20  1  0
 20 21  2  0
 21 22  1  0
 22 23  2  0
 14  8  1  0
 23 15  1  0
 23 18  1  0
M  END
>  <Molecule>  (264) 
CHEMBL1987261

>  <Standard Type>  (264) 
Ki

>  <Standard Relation>  (264) 
=

>  <Standard Value>  (264) 
5011.87

>  <Standard Units>  (264) 
nM

>  <pChEMBL Value>  (264) 
5.3

>  <Comment>  (264) 
active

>  <Compound Key>  (264) 
SID103904229

>  <Assay>  (264) 
CHEMBL1963742

>  <Assay Description>  (264) 
PUBCHEM_BIOASSAY: Navigating the Kinome. (Class of assay: other) Panel member name: JAK3

>  <BAO Format>  (264) 
assay format

>  <Target>  (264) 
CHEMBL2148

>  <Target Pref. Name>  (264) 
Tyrosine-protein kinase JAK3

>  <Target Organism>  (264) 
Homo sapiens

>  <Target Type>  (264) 
SINGLE PROTEIN

>  <Document>  (264) 
CHEMBL1201862

>  <Source>  (264) 
PubChem BioAssays

>  <Max Phase>  (264) 
0

>  <#Ro5 Violations>  (264) 
0

>  <Molecular Weight>  (264) 
313.38

>  <Ligand Efficiency BEI>  (264) 
nan

>  <Ligand Efficiency LE>  (264) 
nan

>  <Ligand Efficiency LLE>  (264) 
nan

>  <Ligand Efficiency SEI>  (264) 
nan

>  <ALogP>  (264) 
3.16

>  <Assay Organism>  (264) 
nan

>  <Assay Tissue ChEMBL ID>  (264) 
nan

>  <Assay Tissue Name>  (264) 
nan

>  <Assay Cell Type>  (264) 
nan

>  <Assay Subcellular Fraction>  (264) 
nan

>  <Organism Tax ID>  (264) 
9606

>  <BAO Format ID>  (264) 
BAO_0000019

>  <Published Type>  (264) 
nan

>  <Published Relation>  (264) 
nan

>  <Published Value>  (264) 
nan

>  <Published Units>  (264) 
nan

>  <Canonical Smiles>  (264) 
CC(C)(CN)CNc1cc(cc(F)n1)c2c[nH]c3ncccc23

>  <Data Validity Comment>  (264) 
nan

>  <Document Journal>  (264) 
nan

>  <Document Year>  (264) 
nan

>  <SRC ID>  (264) 
7

>  <UO Units>  (264) 
UO_0000065

>  <Potential Duplicate>  (264) 
False

>  <Class>  (264) 
1

$$$$

     RDKit          2D

 23 25  0  0  0  0  0  0  0  0999 V2000
    0.0000  -10.3923    0.0000 C   0  0  0  0  0  0  0  0  0  0  0  0
    0.7500   -9.0933    0.0000 C   0  0  0  0  0  0  0  0  0  0  0  0
    2.2500   -9.0933    0.0000 C   0  0  0  0  0  0  0  0  0  0  0  0
    3.0000   -7.7942    0.0000 S   0  0  0  0  0  0  0  0  0  0  0  0
    1.7010   -7.0442    0.0000 O   0  0  0  0  0  0  0  0  0  0  0  0
    4.2990   -8.5442    0.0000 O   0  0  0  0  0  0  0  0  0  0  0  0
    3.7500   -6.4952    0.0000 N   0  0  0  0  0  0  0  0  0  0  0  0
    3.0000   -5.1962    0.0000 C   0  0  0  0  0  0  0  0  0  0  0  0
    1.5000   -5.1962    0.0000 C   0  0  0  0  0  0  0  0  0  0  0  0
    0.7500   -3.8971    0.0000 C   0  0  0  0  0  0  0  0  0  0  0  0
    1.5000   -2.5981    0.0000 C   0  0  0  0  0  0  0  0  0  0  0  0
    3.0000   -2.5981    0.0000 C   0  0  0  0  0  0  0  0  0  0  0  0
    3.7500   -3.8971    0.0000 C   0  0  0  0  0  0  0  0  0  0  0  0
    0.7500   -1.2990    0.0000 C   0  0  0  0  0  0  0  0  0  0  0  0
    1.5000    0.0000    0.0000 C   0  0  0  0  0  0  0  0  0  0  0  0
    0.7500    1.2990    0.0000 C   0  0  0  0  0  0  0  0  0  0  0  0
   -0.7500    1.2990    0.0000 C   0  0  0  0  0  0  0  0  0  0  0  0
   -1.7537    2.4138    0.0000 N   0  0  0  0  0  0  0  0  0  0  0  0
   -3.1240    1.8037    0.0000 N   0  0  0  0  0  0  0  0  0  0  0  0
   -2.9672    0.3119    0.0000 C   0  0  0  0  0  0  0  0  0  0  0  0
   -4.0819   -0.6918    0.0000 N   0  0  0  0  0  0  0  0  0  0  0  0
   -1.5000    0.0000    0.0000 C   0  0  0  0  0  0  0  0  0  0  0  0
   -0.7500   -1.2990    0.0000 C   0  0  0  0  0  0  0  0  0  0  0  0
  1  2  1  0
  2  3  1  0
  3  4  1  0
  4  5  2  0
  4  6  2  0
  4  7  1  0
  7  8  1  0
  8  9  2  0
  9 10  1  0
 10 11  2  0
 11 12  1  0
 12 13  2  0
 11 14  1  0
 14 15  2  0
 15 16  1  0
 16 17  2  0
 17 18  1  0
 18 19  1  0
 19 20  2  0
 20 21  1  0
 20 22  1  0
 22 23  2  0
 13  8  1  0
 23 14  1  0
 22 17  1  0
M  END
>  <Molecule>  (265) 
CHEMBL1992342

>  <Standard Type>  (265) 
Ki

>  <Standard Relation>  (265) 
=

>  <Standard Value>  (265) 
63.1

>  <Standard Units>  (265) 
nM

>  <pChEMBL Value>  (265) 
7.2

>  <Comment>  (265) 
active

>  <Compound Key>  (265) 
SID103904472

>  <Assay>  (265) 
CHEMBL1963742

>  <Assay Description>  (265) 
PUBCHEM_BIOASSAY: Navigating the Kinome. (Class of assay: other) Panel member name: JAK3

>  <BAO Format>  (265) 
assay format

>  <Target>  (265) 
CHEMBL2148

>  <Target Pref. Name>  (265) 
Tyrosine-protein kinase JAK3

>  <Target Organism>  (265) 
Homo sapiens

>  <Target Type>  (265) 
SINGLE PROTEIN

>  <Document>  (265) 
CHEMBL1201862

>  <Source>  (265) 
PubChem BioAssays

>  <Max Phase>  (265) 
0

>  <#Ro5 Violations>  (265) 
0

>  <Molecular Weight>  (265) 
330.41

>  <Ligand Efficiency BEI>  (265) 
nan

>  <Ligand Efficiency LE>  (265) 
nan

>  <Ligand Efficiency LLE>  (265) 
nan

>  <Ligand Efficiency SEI>  (265) 
nan

>  <ALogP>  (265) 
2.96

>  <Assay Organism>  (265) 
nan

>  <Assay Tissue ChEMBL ID>  (265) 
nan

>  <Assay Tissue Name>  (265) 
nan

>  <Assay Cell Type>  (265) 
nan

>  <Assay Subcellular Fraction>  (265) 
nan

>  <Organism Tax ID>  (265) 
9606

>  <BAO Format ID>  (265) 
BAO_0000019

>  <Published Type>  (265) 
nan

>  <Published Relation>  (265) 
nan

>  <Published Value>  (265) 
nan

>  <Published Units>  (265) 
nan

>  <Canonical Smiles>  (265) 
CCCS(=O)(=O)Nc1ccc(cc1)c2ccc3[nH]nc(N)c3c2

>  <Data Validity Comment>  (265) 
nan

>  <Document Journal>  (265) 
nan

>  <Document Year>  (265) 
nan

>  <SRC ID>  (265) 
7

>  <UO Units>  (265) 
UO_0000065

>  <Potential Duplicate>  (265) 
False

>  <Class>  (265) 
1

$$$$

     RDKit          2D

 31 35  0  0  0  0  0  0  0  0999 V2000
   -8.6583   -6.5105    0.0000 F   0  0  0  0  0  0  0  0  0  0  0  0
   -7.2317   -6.0469    0.0000 C   0  0  0  0  0  0  0  0  0  0  0  0
   -6.9199   -4.5797    0.0000 C   0  0  0  0  0  0  0  0  0  0  0  0
   -5.4933   -4.1162    0.0000 C   0  0  0  0  0  0  0  0  0  0  0  0
   -4.3786   -5.1199    0.0000 C   0  0  0  0  0  0  0  0  0  0  0  0
   -4.6904   -6.5871    0.0000 C   0  0  0  0  0  0  0  0  0  0  0  0
   -6.1170   -7.0506    0.0000 C   0  0  0  0  0  0  0  0  0  0  0  0
   -2.9520   -4.6564    0.0000 C   0  0  0  0  0  0  0  0  0  0  0  0
   -1.8373   -5.6601    0.0000 O   0  0  0  0  0  0  0  0  0  0  0  0
   -2.6401   -3.1891    0.0000 N   0  0  0  0  0  0  0  0  0  0  0  0
   -1.2135   -2.7256    0.0000 C   0  0  0  0  0  0  0  0  0  0  0  0
    0.0000   -3.6073    0.0000 N   0  0  0  0  0  0  0  0  0  0  0  0
    1.2135   -2.7256    0.0000 N   0  0  0  0  0  0  0  0  0  0  0  0
    0.7500   -1.2990    0.0000 C   0  0  0  0  0  0  0  0  0  0  0  0
    1.5000    0.0000    0.0000 C   0  0  0  0  0  0  0  0  0  0  0  0
    0.7500    1.2990    0.0000 C   0  0  0  0  0  0  0  0  0  0  0  0
   -0.7500    1.2990    0.0000 C   0  0  0  0  0  0  0  0  0  0  0  0
   -1.5000    0.0000    0.0000 C   0  0  0  0  0  0  0  0  0  0  0  0
   -0.7500   -1.2990    0.0000 C   0  0  0  0  0  0  0  0  0  0  0  0
   -1.5000    2.5981    0.0000 C   0  0  0  0  0  0  0  0  0  0  0  0
   -2.9918    2.7549    0.0000 C   0  0  0  0  0  0  0  0  0  0  0  0
   -3.3037    4.2221    0.0000 N   0  0  0  0  0  0  0  0  0  0  0  0
   -4.6740    4.8322    0.0000 C   0  0  0  0  0  0  0  0  0  0  0  0
   -4.8308    6.3240    0.0000 C   0  0  0  0  0  0  0  0  0  0  0  0
   -3.6172    7.2057    0.0000 C   0  0  0  0  0  0  0  0  0  0  0  0
   -3.7740    8.6974    0.0000 C   0  0  0  0  0  0  0  0  0  0  0  0
   -5.1443    9.3075    0.0000 C   0  0  0  0  0  0  0  0  0  0  0  0
   -6.3579    8.4259    0.0000 C   0  0  0  0  0  0  0  0  0  0  0  0
   -6.2011    6.9341    0.0000 C   0  0  0  0  0  0  0  0  0  0  0  0
   -2.0046    4.9721    0.0000 N   0  0  0  0  0  0  0  0  0  0  0  0
   -0.8899    3.9684    0.0000 N   0  0  0  0  0  0  0  0  0  0  0  0
  1  2  1  0
  2  3  2  0
  3  4  1  0
  4  5  2  0
  5  6  1  0
  6  7  2  0
  5  8  1  0
  8  9  2  0
  8 10  1  0
 10 11  1  0
 11 12  2  0
 12 13  1  0
 13 14  1  0
 14 15  2  0
 15 16  1  0
 16 17  2  0
 17 18  1  0
 18 19  2  0
 17 20  1  0
 20 21  2  0
 21 22  1  0
 22 23  1  0
 23 24  1  0
 24 25  2  0
 25 26  1  0
 26 27  2  0
 27 28  1  0
 28 29  2  0
 22 30  1  0
 30 31  2  0
  7  2  1  0
 19 11  1  0
 19 14  1  0
 31 20  1  0
 29 24  1  0
M  END
>  <Molecule>  (266) 
CHEMBL1966204

>  <Standard Type>  (266) 
Ki

>  <Standard Relation>  (266) 
=

>  <Standard Value>  (266) 
1000.0

>  <Standard Units>  (266) 
nM

>  <pChEMBL Value>  (266) 
6.0

>  <Comment>  (266) 
active

>  <Compound Key>  (266) 
SID103904535

>  <Assay>  (266) 
CHEMBL1963742

>  <Assay Description>  (266) 
PUBCHEM_BIOASSAY: Navigating the Kinome. (Class of assay: other) Panel member name: JAK3

>  <BAO Format>  (266) 
assay format

>  <Target>  (266) 
CHEMBL2148

>  <Target Pref. Name>  (266) 
Tyrosine-protein kinase JAK3

>  <Target Organism>  (266) 
Homo sapiens

>  <Target Type>  (266) 
SINGLE PROTEIN

>  <Document>  (266) 
CHEMBL1201862

>  <Source>  (266) 
PubChem BioAssays

>  <Max Phase>  (266) 
0

>  <#Ro5 Violations>  (266) 
0

>  <Molecular Weight>  (266) 
412.43

>  <Ligand Efficiency BEI>  (266) 
nan

>  <Ligand Efficiency LE>  (266) 
nan

>  <Ligand Efficiency LLE>  (266) 
nan

>  <Ligand Efficiency SEI>  (266) 
nan

>  <ALogP>  (266) 
4.26

>  <Assay Organism>  (266) 
nan

>  <Assay Tissue ChEMBL ID>  (266) 
nan

>  <Assay Tissue Name>  (266) 
nan

>  <Assay Cell Type>  (266) 
nan

>  <Assay Subcellular Fraction>  (266) 
nan

>  <Organism Tax ID>  (266) 
9606

>  <BAO Format ID>  (266) 
BAO_0000019

>  <Published Type>  (266) 
nan

>  <Published Relation>  (266) 
nan

>  <Published Value>  (266) 
nan

>  <Published Units>  (266) 
nan

>  <Canonical Smiles>  (266) 
Fc1ccc(cc1)C(=O)Nc2n[nH]c3ccc(cc23)c4cn(Cc5ccccc5)nn4

>  <Data Validity Comment>  (266) 
nan

>  <Document Journal>  (266) 
nan

>  <Document Year>  (266) 
nan

>  <SRC ID>  (266) 
7

>  <UO Units>  (266) 
UO_0000065

>  <Potential Duplicate>  (266) 
False

>  <Class>  (266) 
1

$$$$

     RDKit          2D

 28 31  0  0  0  0  0  0  0  0999 V2000
   -1.5000   -7.7942    0.0000 F   0  0  0  0  0  0  0  0  0  0  0  0
   -0.7500   -6.4952    0.0000 C   0  0  0  0  0  0  0  0  0  0  0  0
   -1.5000   -5.1962    0.0000 C   0  0  0  0  0  0  0  0  0  0  0  0
   -0.7500   -3.8971    0.0000 C   0  0  0  0  0  0  0  0  0  0  0  0
    0.7500   -3.8971    0.0000 C   0  0  0  0  0  0  0  0  0  0  0  0
    1.5000   -2.5981    0.0000 S   0  0  0  0  0  0  0  0  0  0  0  0
    0.7500   -1.2990    0.0000 C   0  0  0  0  0  0  0  0  0  0  0  0
    1.5000    0.0000    0.0000 N   0  0  0  0  0  0  0  0  0  0  0  0
    0.7500    1.2990    0.0000 N   0  0  0  0  0  0  0  0  0  0  0  0
    1.5000    2.5981    0.0000 C   0  0  0  0  0  0  0  0  0  0  0  0
    0.7500    3.8971    0.0000 N   0  0  0  0  0  0  0  0  0  0  0  0
   -0.7500    3.8971    0.0000 C   0  0  0  0  0  0  0  0  0  0  0  0
   -1.5000    5.1962    0.0000 O   0  0  0  0  0  0  0  0  0  0  0  0
   -1.5000    2.5981    0.0000 C   0  0  0  0  0  0  0  0  0  0  0  0
   -0.7500    1.2990    0.0000 C   0  0  0  0  0  0  0  0  0  0  0  0
   -1.5000    0.0000    0.0000 C   0  0  0  0  0  0  0  0  0  0  0  0
   -0.7500   -1.2990    0.0000 C   0  0  0  0  0  0  0  0  0  0  0  0
   -3.0000    2.5981    0.0000 C   0  0  0  0  0  0  0  0  0  0  0  0
   -3.7500    3.8971    0.0000 C   0  0  0  0  0  0  0  0  0  0  0  0
   -3.0000    5.1962    0.0000 Cl  0  0  0  0  0  0  0  0  0  0  0  0
   -5.2500    3.8971    0.0000 C   0  0  0  0  0  0  0  0  0  0  0  0
   -6.0000    2.5981    0.0000 C   0  0  0  0  0  0  0  0  0  0  0  0
   -5.2500    1.2990    0.0000 C   0  0  0  0  0  0  0  0  0  0  0  0
   -3.7500    1.2990    0.0000 C   0  0  0  0  0  0  0  0  0  0  0  0
   -3.0000   -0.0000    0.0000 Cl  0  0  0  0  0  0  0  0  0  0  0  0
    1.5000   -5.1962    0.0000 C   0  0  0  0  0  0  0  0  0  0  0  0
    3.0000   -5.1962    0.0000 F   0  0  0  0  0  0  0  0  0  0  0  0
    0.7500   -6.4952    0.0000 C   0  0  0  0  0  0  0  0  0  0  0  0
  1  2  1  0
  2  3  2  0
  3  4  1  0
  4  5  2  0
  5  6  1  0
  6  7  1  0
  7  8  2  0
  8  9  1  0
  9 10  1  0
 10 11  2  0
 11 12  1  0
 12 13  2  0
 12 14  1  0
 14 15  2  0
 15 16  1  0
 16 17  2  0
 14 18  1  0
 18 19  2  0
 19 20  1  0
 19 21  1  0
 21 22  2  0
 22 23  1  0
 23 24  2  0
 24 25  1  0
  5 26  1  0
 26 27  1  0
 26 28  2  0
 28  2  1  0
 17  7  1  0
 15  9  1  0
 24 18  1  0
M  END
>  <Molecule>  (267) 
CHEMBL119385

>  <Standard Type>  (267) 
Ki

>  <Standard Relation>  (267) 
>

>  <Standard Value>  (267) 
3981.07

>  <Standard Units>  (267) 
nM

>  <pChEMBL Value>  (267) 
nan

>  <Comment>  (267) 
inactive

>  <Compound Key>  (267) 
SID103905630

>  <Assay>  (267) 
CHEMBL1963742

>  <Assay Description>  (267) 
PUBCHEM_BIOASSAY: Navigating the Kinome. (Class of assay: other) Panel member name: JAK3

>  <BAO Format>  (267) 
assay format

>  <Target>  (267) 
CHEMBL2148

>  <Target Pref. Name>  (267) 
Tyrosine-protein kinase JAK3

>  <Target Organism>  (267) 
Homo sapiens

>  <Target Type>  (267) 
SINGLE PROTEIN

>  <Document>  (267) 
CHEMBL1201862

>  <Source>  (267) 
PubChem BioAssays

>  <Max Phase>  (267) 
2

>  <#Ro5 Violations>  (267) 
1

>  <Molecular Weight>  (267) 
436.27

>  <Ligand Efficiency BEI>  (267) 
nan

>  <Ligand Efficiency LE>  (267) 
nan

>  <Ligand Efficiency LLE>  (267) 
nan

>  <Ligand Efficiency SEI>  (267) 
nan

>  <ALogP>  (267) 
5.49

>  <Assay Organism>  (267) 
nan

>  <Assay Tissue ChEMBL ID>  (267) 
nan

>  <Assay Tissue Name>  (267) 
nan

>  <Assay Cell Type>  (267) 
nan

>  <Assay Subcellular Fraction>  (267) 
nan

>  <Organism Tax ID>  (267) 
9606

>  <BAO Format ID>  (267) 
BAO_0000019

>  <Published Type>  (267) 
nan

>  <Published Relation>  (267) 
nan

>  <Published Value>  (267) 
nan

>  <Published Units>  (267) 
nan

>  <Canonical Smiles>  (267) 
Fc1ccc(SC2=NN3C=NC(=O)C(=C3C=C2)c4c(Cl)cccc4Cl)c(F)c1

>  <Data Validity Comment>  (267) 
nan

>  <Document Journal>  (267) 
nan

>  <Document Year>  (267) 
nan

>  <SRC ID>  (267) 
7

>  <UO Units>  (267) 
UO_0000065

>  <Potential Duplicate>  (267) 
False

>  <Class>  (267) 
0

$$$$

     RDKit          2D

 29 31  0  0  0  0  0  0  0  0999 V2000
    4.5000    0.0000    0.0000 N   0  0  0  0  0  0  0  0  0  0  0  0
    3.0000    0.0000    0.0000 S   0  0  0  0  0  0  0  0  0  0  0  0
    3.0000   -1.5000    0.0000 O   0  0  0  0  0  0  0  0  0  0  0  0
    3.0000    1.5000    0.0000 O   0  0  0  0  0  0  0  0  0  0  0  0
    1.5000    0.0000    0.0000 C   0  0  0  0  0  0  0  0  0  0  0  0
    0.7500   -1.2990    0.0000 C   0  0  0  0  0  0  0  0  0  0  0  0
   -0.7500   -1.2990    0.0000 C   0  0  0  0  0  0  0  0  0  0  0  0
   -1.5000    0.0000    0.0000 C   0  0  0  0  0  0  0  0  0  0  0  0
   -0.7500    1.2990    0.0000 C   0  0  0  0  0  0  0  0  0  0  0  0
   -1.5000    2.5981    0.0000 N   0  0  0  0  0  0  0  0  0  0  0  0
   -0.7500    3.8971    0.0000 C   0  0  0  0  0  0  0  0  0  0  0  0
    0.7500    3.8971    0.0000 N   0  0  0  0  0  0  0  0  0  0  0  0
    1.5000    5.1962    0.0000 C   0  0  0  0  0  0  0  0  0  0  0  0
    0.7500    6.4952    0.0000 C   0  0  0  0  0  0  0  0  0  0  0  0
    1.5000    7.7942    0.0000 Br  0  0  0  0  0  0  0  0  0  0  0  0
   -0.7500    6.4952    0.0000 C   0  0  0  0  0  0  0  0  0  0  0  0
   -1.5000    7.7942    0.0000 N   0  0  0  0  0  0  0  0  0  0  0  0
   -3.0000    7.7942    0.0000 C   0  0  0  0  0  0  0  0  0  0  0  0
   -3.7500    9.0933    0.0000 C   0  0  0  0  0  0  0  0  0  0  0  0
   -5.2500    9.0933    0.0000 C   0  0  0  0  0  0  0  0  0  0  0  0
   -6.0000    7.7942    0.0000 C   0  0  0  0  0  0  0  0  0  0  0  0
   -7.5000    7.7942    0.0000 O   0  0  0  0  0  0  0  0  0  0  0  0
   -8.2500    9.0933    0.0000 C   0  0  0  0  0  0  0  0  0  0  0  0
   -9.7500    9.0933    0.0000 C   0  0  0  0  0  0  0  0  0  0  0  0
  -11.2500    9.0933    0.0000 N   0  0  0  0  0  0  0  0  0  0  0  0
   -5.2500    6.4952    0.0000 C   0  0  0  0  0  0  0  0  0  0  0  0
   -3.7500    6.4952    0.0000 C   0  0  0  0  0  0  0  0  0  0  0  0
   -1.5000    5.1962    0.0000 N   0  0  0  0  0  0  0  0  0  0  0  0
    0.7500    1.2990    0.0000 C   0  0  0  0  0  0  0  0  0  0  0  0
  1  2  1  0
  2  3  2  0
  2  4  2  0
  2  5  1  0
  5  6  2  0
  6  7  1  0
  7  8  2  0
  8  9  1  0
  9 10  1  0
 10 11  1  0
 11 12  2  0
 12 13  1  0
 13 14  2  0
 14 15  1  0
 14 16  1  0
 16 17  1  0
 17 18  1  0
 18 19  2  0
 19 20  1  0
 20 21  2  0
 21 22  1  0
 22 23  1  0
 23 24  1  0
 24 25  3  0
 21 26  1  0
 26 27  2  0
 16 28  2  0
  9 29  2  0
 29  5  1  0
 28 11  1  0
 27 18  1  0
M  END
>  <Molecule>  (268) 
CHEMBL1987034

>  <Standard Type>  (268) 
Ki

>  <Standard Relation>  (268) 
=

>  <Standard Value>  (268) 
6.31

>  <Standard Units>  (268) 
nM

>  <pChEMBL Value>  (268) 
8.2

>  <Comment>  (268) 
active

>  <Compound Key>  (268) 
SID103904592

>  <Assay>  (268) 
CHEMBL1963742

>  <Assay Description>  (268) 
PUBCHEM_BIOASSAY: Navigating the Kinome. (Class of assay: other) Panel member name: JAK3

>  <BAO Format>  (268) 
assay format

>  <Target>  (268) 
CHEMBL2148

>  <Target Pref. Name>  (268) 
Tyrosine-protein kinase JAK3

>  <Target Organism>  (268) 
Homo sapiens

>  <Target Type>  (268) 
SINGLE PROTEIN

>  <Document>  (268) 
CHEMBL1201862

>  <Source>  (268) 
PubChem BioAssays

>  <Max Phase>  (268) 
0

>  <#Ro5 Violations>  (268) 
0

>  <Molecular Weight>  (268) 
475.33

>  <Ligand Efficiency BEI>  (268) 
nan

>  <Ligand Efficiency LE>  (268) 
nan

>  <Ligand Efficiency LLE>  (268) 
nan

>  <Ligand Efficiency SEI>  (268) 
nan

>  <ALogP>  (268) 
3.28

>  <Assay Organism>  (268) 
nan

>  <Assay Tissue ChEMBL ID>  (268) 
nan

>  <Assay Tissue Name>  (268) 
nan

>  <Assay Cell Type>  (268) 
nan

>  <Assay Subcellular Fraction>  (268) 
nan

>  <Organism Tax ID>  (268) 
9606

>  <BAO Format ID>  (268) 
BAO_0000019

>  <Published Type>  (268) 
nan

>  <Published Relation>  (268) 
nan

>  <Published Value>  (268) 
nan

>  <Published Units>  (268) 
nan

>  <Canonical Smiles>  (268) 
NS(=O)(=O)c1cccc(Nc2ncc(Br)c(Nc3ccc(OCC#N)cc3)n2)c1

>  <Data Validity Comment>  (268) 
nan

>  <Document Journal>  (268) 
nan

>  <Document Year>  (268) 
nan

>  <SRC ID>  (268) 
7

>  <UO Units>  (268) 
UO_0000065

>  <Potential Duplicate>  (268) 
False

>  <Class>  (268) 
1

$$$$

     RDKit          2D

 19 21  0  0  0  0  0  0  0  0999 V2000
   -4.6883    2.2939    0.0000 C   0  0  0  0  0  0  0  0  0  0  0  0
   -3.5736    1.2902    0.0000 C   0  0  0  0  0  0  0  0  0  0  0  0
   -2.1470    1.7537    0.0000 N   0  0  0  0  0  0  0  0  0  0  0  0
   -1.0323    0.7500    0.0000 C   0  0  0  0  0  0  0  0  0  0  0  0
    0.3943    1.2135    0.0000 C   0  0  0  0  0  0  0  0  0  0  0  0
    1.2760    0.0000    0.0000 C   0  0  0  0  0  0  0  0  0  0  0  0
    2.7760    0.0000    0.0000 O   0  0  0  0  0  0  0  0  0  0  0  0
    0.3943   -1.2135    0.0000 O   0  0  0  0  0  0  0  0  0  0  0  0
   -1.0323   -0.7500    0.0000 N   0  0  0  0  0  0  0  0  0  0  0  0
    0.7062    2.6807    0.0000 C   0  0  0  0  0  0  0  0  0  0  0  0
    2.1328    3.1443    0.0000 O   0  0  0  0  0  0  0  0  0  0  0  0
   -0.4086    3.6844    0.0000 C   0  0  0  0  0  0  0  0  0  0  0  0
   -0.0967    5.1517    0.0000 C   0  0  0  0  0  0  0  0  0  0  0  0
   -1.2114    6.1554    0.0000 C   0  0  0  0  0  0  0  0  0  0  0  0
   -0.8995    7.6226    0.0000 F   0  0  0  0  0  0  0  0  0  0  0  0
   -2.6380    5.6918    0.0000 C   0  0  0  0  0  0  0  0  0  0  0  0
   -3.7527    6.6955    0.0000 Cl  0  0  0  0  0  0  0  0  0  0  0  0
   -2.9499    4.2246    0.0000 C   0  0  0  0  0  0  0  0  0  0  0  0
   -1.8351    3.2209    0.0000 C   0  0  0  0  0  0  0  0  0  0  0  0
  1  2  1  0
  2  3  1  0
  3  4  1  0
  4  5  2  0
  5  6  1  0
  6  7  2  0
  6  8  1  0
  8  9  1  0
  5 10  1  0
 10 11  2  0
 10 12  1  0
 12 13  2  0
 13 14  1  0
 14 15  1  0
 14 16  2  0
 16 17  1  0
 16 18  1  0
 18 19  2  0
 19  3  1  0
  9  4  1  0
 19 12  1  0
M  END
>  <Molecule>  (269) 
CHEMBL468280

>  <Standard Type>  (269) 
Ki

>  <Standard Relation>  (269) 
>

>  <Standard Value>  (269) 
1584.89

>  <Standard Units>  (269) 
nM

>  <pChEMBL Value>  (269) 
nan

>  <Comment>  (269) 
inactive

>  <Compound Key>  (269) 
SID103905547

>  <Assay>  (269) 
CHEMBL1963742

>  <Assay Description>  (269) 
PUBCHEM_BIOASSAY: Navigating the Kinome. (Class of assay: other) Panel member name: JAK3

>  <BAO Format>  (269) 
assay format

>  <Target>  (269) 
CHEMBL2148

>  <Target Pref. Name>  (269) 
Tyrosine-protein kinase JAK3

>  <Target Organism>  (269) 
Homo sapiens

>  <Target Type>  (269) 
SINGLE PROTEIN

>  <Document>  (269) 
CHEMBL1201862

>  <Source>  (269) 
PubChem BioAssays

>  <Max Phase>  (269) 
0

>  <#Ro5 Violations>  (269) 
0

>  <Molecular Weight>  (269) 
282.66

>  <Ligand Efficiency BEI>  (269) 
nan

>  <Ligand Efficiency LE>  (269) 
nan

>  <Ligand Efficiency LLE>  (269) 
nan

>  <Ligand Efficiency SEI>  (269) 
nan

>  <ALogP>  (269) 
2.25

>  <Assay Organism>  (269) 
nan

>  <Assay Tissue ChEMBL ID>  (269) 
nan

>  <Assay Tissue Name>  (269) 
nan

>  <Assay Cell Type>  (269) 
nan

>  <Assay Subcellular Fraction>  (269) 
nan

>  <Organism Tax ID>  (269) 
9606

>  <BAO Format ID>  (269) 
BAO_0000019

>  <Published Type>  (269) 
nan

>  <Published Relation>  (269) 
nan

>  <Published Value>  (269) 
nan

>  <Published Units>  (269) 
nan

>  <Canonical Smiles>  (269) 
CCN1C2=C(C(=O)ON2)C(=O)c3cc(F)c(Cl)cc13

>  <Data Validity Comment>  (269) 
nan

>  <Document Journal>  (269) 
nan

>  <Document Year>  (269) 
nan

>  <SRC ID>  (269) 
7

>  <UO Units>  (269) 
UO_0000065

>  <Potential Duplicate>  (269) 
False

>  <Class>  (269) 
0

$$$$

     RDKit          2D

 26 28  0  0  0  0  0  0  0  0999 V2000
   -7.8555   -8.9814    0.0000 C   0  0  0  0  0  0  0  0  0  0  0  0
   -6.4289   -8.5179    0.0000 N   0  0  0  0  0  0  0  0  0  0  0  0
   -5.3142   -9.5216    0.0000 C   0  0  0  0  0  0  0  0  0  0  0  0
   -6.1170   -7.0506    0.0000 C   0  0  0  0  0  0  0  0  0  0  0  0
   -4.6904   -6.5871    0.0000 C   0  0  0  0  0  0  0  0  0  0  0  0
   -4.3786   -5.1199    0.0000 C   0  0  0  0  0  0  0  0  0  0  0  0
   -2.9520   -4.6564    0.0000 C   0  0  0  0  0  0  0  0  0  0  0  0
   -1.8373   -5.6601    0.0000 O   0  0  0  0  0  0  0  0  0  0  0  0
   -2.6401   -3.1891    0.0000 N   0  0  0  0  0  0  0  0  0  0  0  0
   -1.2135   -2.7256    0.0000 C   0  0  0  0  0  0  0  0  0  0  0  0
   -0.0000   -3.6073    0.0000 N   0  0  0  0  0  0  0  0  0  0  0  0
    1.2135   -2.7256    0.0000 N   0  0  0  0  0  0  0  0  0  0  0  0
    0.7500   -1.2990    0.0000 C   0  0  0  0  0  0  0  0  0  0  0  0
    1.5000    0.0000    0.0000 N   0  0  0  0  0  0  0  0  0  0  0  0
    0.7500    1.2990    0.0000 N   0  0  0  0  0  0  0  0  0  0  0  0
   -0.7500    1.2990    0.0000 C   0  0  0  0  0  0  0  0  0  0  0  0
   -1.5000    0.0000    0.0000 C   0  0  0  0  0  0  0  0  0  0  0  0
   -0.7500   -1.2990    0.0000 C   0  0  0  0  0  0  0  0  0  0  0  0
   -1.5000    2.5981    0.0000 C   0  0  0  0  0  0  0  0  0  0  0  0
   -0.7500    3.8971    0.0000 C   0  0  0  0  0  0  0  0  0  0  0  0
   -1.5000    5.1962    0.0000 C   0  0  0  0  0  0  0  0  0  0  0  0
   -3.0000    5.1962    0.0000 C   0  0  0  0  0  0  0  0  0  0  0  0
   -3.7500    3.8971    0.0000 C   0  0  0  0  0  0  0  0  0  0  0  0
   -5.2500    3.8971    0.0000 F   0  0  0  0  0  0  0  0  0  0  0  0
   -3.0000    2.5981    0.0000 C   0  0  0  0  0  0  0  0  0  0  0  0
   -3.7500    1.2990    0.0000 F   0  0  0  0  0  0  0  0  0  0  0  0
  1  2  1  0
  2  3  1  0
  2  4  1  0
  4  5  1  0
  5  6  1  0
  6  7  1  0
  7  8  2  0
  7  9  1  0
  9 10  1  0
 10 11  2  0
 11 12  1  0
 12 13  1  0
 13 14  2  0
 14 15  1  0
 15 16  2  0
 16 17  1  0
 17 18  2  0
 16 19  1  0
 19 20  2  0
 20 21  1  0
 21 22  2  0
 22 23  1  0
 23 24  1  0
 23 25  2  0
 25 26  1  0
 18 10  1  0
 18 13  1  0
 25 19  1  0
M  END
>  <Molecule>  (270) 
CHEMBL41783

>  <Standard Type>  (270) 
Ki

>  <Standard Relation>  (270) 
>

>  <Standard Value>  (270) 
1584.89

>  <Standard Units>  (270) 
nM

>  <pChEMBL Value>  (270) 
nan

>  <Comment>  (270) 
inactive

>  <Compound Key>  (270) 
SID103905385

>  <Assay>  (270) 
CHEMBL1963742

>  <Assay Description>  (270) 
PUBCHEM_BIOASSAY: Navigating the Kinome. (Class of assay: other) Panel member name: JAK3

>  <BAO Format>  (270) 
assay format

>  <Target>  (270) 
CHEMBL2148

>  <Target Pref. Name>  (270) 
Tyrosine-protein kinase JAK3

>  <Target Organism>  (270) 
Homo sapiens

>  <Target Type>  (270) 
SINGLE PROTEIN

>  <Document>  (270) 
CHEMBL1201862

>  <Source>  (270) 
PubChem BioAssays

>  <Max Phase>  (270) 
0

>  <#Ro5 Violations>  (270) 
0

>  <Molecular Weight>  (270) 
360.37

>  <Ligand Efficiency BEI>  (270) 
nan

>  <Ligand Efficiency LE>  (270) 
nan

>  <Ligand Efficiency LLE>  (270) 
nan

>  <Ligand Efficiency SEI>  (270) 
nan

>  <ALogP>  (270) 
2.58

>  <Assay Organism>  (270) 
nan

>  <Assay Tissue ChEMBL ID>  (270) 
nan

>  <Assay Tissue Name>  (270) 
nan

>  <Assay Cell Type>  (270) 
nan

>  <Assay Subcellular Fraction>  (270) 
nan

>  <Organism Tax ID>  (270) 
9606

>  <BAO Format ID>  (270) 
BAO_0000019

>  <Published Type>  (270) 
nan

>  <Published Relation>  (270) 
nan

>  <Published Value>  (270) 
nan

>  <Published Units>  (270) 
nan

>  <Canonical Smiles>  (270) 
CN(C)CCCC(=O)Nc1n[nH]c2nnc(cc12)c3cccc(F)c3F

>  <Data Validity Comment>  (270) 
nan

>  <Document Journal>  (270) 
nan

>  <Document Year>  (270) 
nan

>  <SRC ID>  (270) 
7

>  <UO Units>  (270) 
UO_0000065

>  <Potential Duplicate>  (270) 
False

>  <Class>  (270) 
0

$$$$

     RDKit          2D

 27 29  0  0  0  0  0  0  0  0999 V2000
   -0.7500   -6.4952    0.0000 N   0  0  0  0  0  0  0  0  0  0  0  0
    0.7500   -6.4952    0.0000 C   0  0  0  0  0  0  0  0  0  0  0  0
    1.5000   -5.1962    0.0000 C   0  0  0  0  0  0  0  0  0  0  0  0
    0.7500   -3.8971    0.0000 O   0  0  0  0  0  0  0  0  0  0  0  0
    1.5000   -2.5981    0.0000 C   0  0  0  0  0  0  0  0  0  0  0  0
    0.7500   -1.2990    0.0000 C   0  0  0  0  0  0  0  0  0  0  0  0
    1.5000    0.0000    0.0000 C   0  0  0  0  0  0  0  0  0  0  0  0
    0.7500    1.2990    0.0000 C   0  0  0  0  0  0  0  0  0  0  0  0
   -0.7500    1.2990    0.0000 C   0  0  0  0  0  0  0  0  0  0  0  0
   -1.5000    0.0000    0.0000 C   0  0  0  0  0  0  0  0  0  0  0  0
   -0.7500   -1.2990    0.0000 C   0  0  0  0  0  0  0  0  0  0  0  0
    1.5000   -7.7942    0.0000 C   0  0  0  0  0  0  0  0  0  0  0  0
    0.7500   -9.0933    0.0000 O   0  0  0  0  0  0  0  0  0  0  0  0
    1.5000  -10.3923    0.0000 C   0  0  0  0  0  0  0  0  0  0  0  0
    0.7500  -11.6913    0.0000 C   0  0  0  0  0  0  0  0  0  0  0  0
    1.5000  -12.9904    0.0000 N   0  0  0  0  0  0  0  0  0  0  0  0
    3.0000  -12.9904    0.0000 C   0  0  0  0  0  0  0  0  0  0  0  0
    3.7500  -11.6913    0.0000 C   0  0  0  0  0  0  0  0  0  0  0  0
    5.2500  -11.6913    0.0000 C   0  0  0  0  0  0  0  0  0  0  0  0
    6.0000  -12.9904    0.0000 C   0  0  0  0  0  0  0  0  0  0  0  0
    7.5000  -12.9904    0.0000 C   0  0  0  0  0  0  0  0  0  0  0  0
    8.2500  -14.2894    0.0000 C   0  0  0  0  0  0  0  0  0  0  0  0
    9.7500  -14.2894    0.0000 C   0  0  0  0  0  0  0  0  0  0  0  0
   10.5000  -12.9904    0.0000 N   0  0  0  0  0  0  0  0  0  0  0  0
    9.7500  -11.6913    0.0000 C   0  0  0  0  0  0  0  0  0  0  0  0
    8.2500  -11.6913    0.0000 C   0  0  0  0  0  0  0  0  0  0  0  0
    3.0000  -10.3923    0.0000 C   0  0  0  0  0  0  0  0  0  0  0  0
  1  2  1  0
  2  3  1  0
  3  4  1  0
  4  5  1  0
  5  6  1  0
  6  7  2  0
  7  8  1  0
  8  9  2  0
  9 10  1  0
 10 11  2  0
  2 12  1  0
 12 13  1  0
 13 14  1  0
 14 15  2  0
 15 16  1  0
 16 17  2  0
 17 18  1  0
 18 19  1  0
 19 20  2  3
 20 21  1  0
 21 22  2  0
 22 23  1  0
 23 24  2  0
 24 25  1  0
 25 26  2  0
 18 27  2  0
 11  6  1  0
 27 14  1  0
 26 21  1  0
M  END
>  <Molecule>  (271) 
CHEMBL1993781

>  <Standard Type>  (271) 
Ki

>  <Standard Relation>  (271) 
>

>  <Standard Value>  (271) 
1584.89

>  <Standard Units>  (271) 
nM

>  <pChEMBL Value>  (271) 
nan

>  <Comment>  (271) 
inactive

>  <Compound Key>  (271) 
SID103904968

>  <Assay>  (271) 
CHEMBL1963742

>  <Assay Description>  (271) 
PUBCHEM_BIOASSAY: Navigating the Kinome. (Class of assay: other) Panel member name: JAK3

>  <BAO Format>  (271) 
assay format

>  <Target>  (271) 
CHEMBL2148

>  <Target Pref. Name>  (271) 
Tyrosine-protein kinase JAK3

>  <Target Organism>  (271) 
Homo sapiens

>  <Target Type>  (271) 
SINGLE PROTEIN

>  <Document>  (271) 
CHEMBL1201862

>  <Source>  (271) 
PubChem BioAssays

>  <Max Phase>  (271) 
0

>  <#Ro5 Violations>  (271) 
0

>  <Molecular Weight>  (271) 
361.45

>  <Ligand Efficiency BEI>  (271) 
nan

>  <Ligand Efficiency LE>  (271) 
nan

>  <Ligand Efficiency LLE>  (271) 
nan

>  <Ligand Efficiency SEI>  (271) 
nan

>  <ALogP>  (271) 
3.57

>  <Assay Organism>  (271) 
nan

>  <Assay Tissue ChEMBL ID>  (271) 
nan

>  <Assay Tissue Name>  (271) 
nan

>  <Assay Cell Type>  (271) 
nan

>  <Assay Subcellular Fraction>  (271) 
nan

>  <Organism Tax ID>  (271) 
9606

>  <BAO Format ID>  (271) 
BAO_0000019

>  <Published Type>  (271) 
nan

>  <Published Relation>  (271) 
nan

>  <Published Value>  (271) 
nan

>  <Published Units>  (271) 
nan

>  <Canonical Smiles>  (271) 
NC(COCc1ccccc1)COc2cncc(C=Cc3ccncc3)c2

>  <Data Validity Comment>  (271) 
nan

>  <Document Journal>  (271) 
nan

>  <Document Year>  (271) 
nan

>  <SRC ID>  (271) 
7

>  <UO Units>  (271) 
UO_0000065

>  <Potential Duplicate>  (271) 
False

>  <Class>  (271) 
0

$$$$

     RDKit          2D

 27 30  0  0  0  0  0  0  0  0999 V2000
   -8.1673  -10.4486    0.0000 C   0  0  0  0  0  0  0  0  0  0  0  0
   -7.8555   -8.9814    0.0000 O   0  0  0  0  0  0  0  0  0  0  0  0
   -6.4289   -8.5179    0.0000 C   0  0  0  0  0  0  0  0  0  0  0  0
   -6.1170   -7.0506    0.0000 C   0  0  0  0  0  0  0  0  0  0  0  0
   -4.6904   -6.5871    0.0000 N   0  0  0  0  0  0  0  0  0  0  0  0
   -4.3786   -5.1199    0.0000 C   0  0  0  0  0  0  0  0  0  0  0  0
   -5.4933   -4.1162    0.0000 N   0  0  0  0  0  0  0  0  0  0  0  0
   -5.1814   -2.6490    0.0000 C   0  0  0  0  0  0  0  0  0  0  0  0
   -3.7548   -2.1855    0.0000 C   0  0  0  0  0  0  0  0  0  0  0  0
   -2.6401   -3.1891    0.0000 C   0  0  0  0  0  0  0  0  0  0  0  0
   -2.9520   -4.6564    0.0000 N   0  0  0  0  0  0  0  0  0  0  0  0
   -1.2135   -2.7256    0.0000 C   0  0  0  0  0  0  0  0  0  0  0  0
   -0.0000   -3.6073    0.0000 C   0  0  0  0  0  0  0  0  0  0  0  0
    1.2135   -2.7256    0.0000 N   0  0  0  0  0  0  0  0  0  0  0  0
    0.7500   -1.2990    0.0000 C   0  0  0  0  0  0  0  0  0  0  0  0
    1.5000    0.0000    0.0000 C   0  0  0  0  0  0  0  0  0  0  0  0
    0.7500    1.2990    0.0000 N   0  0  0  0  0  0  0  0  0  0  0  0
   -0.7500    1.2990    0.0000 C   0  0  0  0  0  0  0  0  0  0  0  0
   -1.5000    0.0000    0.0000 C   0  0  0  0  0  0  0  0  0  0  0  0
   -0.7500   -1.2990    0.0000 N   0  0  0  0  0  0  0  0  0  0  0  0
   -0.0000   -5.1073    0.0000 C   0  0  0  0  0  0  0  0  0  0  0  0
   -1.2990   -5.8573    0.0000 C   0  0  0  0  0  0  0  0  0  0  0  0
   -1.2990   -7.3573    0.0000 C   0  0  0  0  0  0  0  0  0  0  0  0
   -0.0000   -8.1073    0.0000 C   0  0  0  0  0  0  0  0  0  0  0  0
    0.0000   -9.6073    0.0000 F   0  0  0  0  0  0  0  0  0  0  0  0
    1.2990   -7.3573    0.0000 C   0  0  0  0  0  0  0  0  0  0  0  0
    1.2990   -5.8573    0.0000 C   0  0  0  0  0  0  0  0  0  0  0  0
  1  2  1  0
  2  3  1  0
  3  4  1  0
  4  5  1  0
  5  6  1  0
  6  7  2  0
  7  8  1  0
  8  9  2  0
  9 10  1  0
 10 11  2  0
 10 12  1  0
 12 13  2  0
 13 14  1  0
 14 15  2  0
 15 16  1  0
 16 17  2  0
 17 18  1  0
 18 19  2  0
 19 20  1  0
 13 21  1  0
 21 22  2  0
 22 23  1  0
 23 24  2  0
 24 25  1  0
 24 26  1  0
 26 27  2  0
 11  6  1  0
 20 12  1  0
 20 15  1  0
 27 21  1  0
M  END
>  <Molecule>  (272) 
CHEMBL1969372

>  <Standard Type>  (272) 
Ki

>  <Standard Relation>  (272) 
>

>  <Standard Value>  (272) 
1584.89

>  <Standard Units>  (272) 
nM

>  <pChEMBL Value>  (272) 
nan

>  <Comment>  (272) 
inactive

>  <Compound Key>  (272) 
SID103904758

>  <Assay>  (272) 
CHEMBL1963742

>  <Assay Description>  (272) 
PUBCHEM_BIOASSAY: Navigating the Kinome. (Class of assay: other) Panel member name: JAK3

>  <BAO Format>  (272) 
assay format

>  <Target>  (272) 
CHEMBL2148

>  <Target Pref. Name>  (272) 
Tyrosine-protein kinase JAK3

>  <Target Organism>  (272) 
Homo sapiens

>  <Target Type>  (272) 
SINGLE PROTEIN

>  <Document>  (272) 
CHEMBL1201862

>  <Source>  (272) 
PubChem BioAssays

>  <Max Phase>  (272) 
0

>  <#Ro5 Violations>  (272) 
0

>  <Molecular Weight>  (272) 
364.38

>  <Ligand Efficiency BEI>  (272) 
nan

>  <Ligand Efficiency LE>  (272) 
nan

>  <Ligand Efficiency LLE>  (272) 
nan

>  <Ligand Efficiency SEI>  (272) 
nan

>  <ALogP>  (272) 
3.05

>  <Assay Organism>  (272) 
nan

>  <Assay Tissue ChEMBL ID>  (272) 
nan

>  <Assay Tissue Name>  (272) 
nan

>  <Assay Cell Type>  (272) 
nan

>  <Assay Subcellular Fraction>  (272) 
nan

>  <Organism Tax ID>  (272) 
9606

>  <BAO Format ID>  (272) 
BAO_0000019

>  <Published Type>  (272) 
nan

>  <Published Relation>  (272) 
nan

>  <Published Value>  (272) 
nan

>  <Published Units>  (272) 
nan

>  <Canonical Smiles>  (272) 
COCCNc1nccc(n1)c2c(nc3cnccn23)c4ccc(F)cc4

>  <Data Validity Comment>  (272) 
nan

>  <Document Journal>  (272) 
nan

>  <Document Year>  (272) 
nan

>  <SRC ID>  (272) 
7

>  <UO Units>  (272) 
UO_0000065

>  <Potential Duplicate>  (272) 
False

>  <Class>  (272) 
0

$$$$

     RDKit          2D

 17 19  0  0  0  0  0  0  0  0999 V2000
   -3.0000   -2.5981    0.0000 N   0  0  0  0  0  0  0  0  0  0  0  0
   -3.7500   -3.8971    0.0000 C   0  0  0  0  0  0  0  0  0  0  0  0
   -5.2500   -3.8971    0.0000 C   0  0  0  0  0  0  0  0  0  0  0  0
   -6.0000   -5.1962    0.0000 C   0  0  0  0  0  0  0  0  0  0  0  0
   -5.2500   -6.4952    0.0000 C   0  0  0  0  0  0  0  0  0  0  0  0
   -3.7500   -6.4952    0.0000 C   0  0  0  0  0  0  0  0  0  0  0  0
   -3.0000   -5.1962    0.0000 C   0  0  0  0  0  0  0  0  0  0  0  0
   -1.5000   -2.5981    0.0000 C   0  0  0  0  0  0  0  0  0  0  0  0
   -0.7500   -3.8971    0.0000 N   0  0  0  0  0  0  0  0  0  0  0  0
    0.7500   -3.8971    0.0000 C   0  0  0  0  0  0  0  0  0  0  0  0
    1.5000   -2.5981    0.0000 N   0  0  0  0  0  0  0  0  0  0  0  0
    0.7500   -1.2990    0.0000 C   0  0  0  0  0  0  0  0  0  0  0  0
    1.5000    0.0000    0.0000 C   0  0  0  0  0  0  0  0  0  0  0  0
    0.7500    1.2990    0.0000 C   0  0  0  0  0  0  0  0  0  0  0  0
   -0.7500    1.2990    0.0000 C   0  0  0  0  0  0  0  0  0  0  0  0
   -1.5000    0.0000    0.0000 C   0  0  0  0  0  0  0  0  0  0  0  0
   -0.7500   -1.2990    0.0000 C   0  0  0  0  0  0  0  0  0  0  0  0
  1  2  1  0
  2  3  2  0
  3  4  1  0
  4  5  2  0
  5  6  1  0
  6  7  2  0
  1  8  1  0
  8  9  2  0
  9 10  1  0
 10 11  2  0
 11 12  1  0
 12 13  2  0
 13 14  1  0
 14 15  2  0
 15 16  1  0
 16 17  2  0
  7  2  1  0
 17  8  1  0
 17 12  1  0
M  END
>  <Molecule>  (273) 
CHEMBL289959

>  <Standard Type>  (273) 
Ki

>  <Standard Relation>  (273) 
>

>  <Standard Value>  (273) 
15848.93

>  <Standard Units>  (273) 
nM

>  <pChEMBL Value>  (273) 
nan

>  <Comment>  (273) 
inactive

>  <Compound Key>  (273) 
SID103905123

>  <Assay>  (273) 
CHEMBL1963742

>  <Assay Description>  (273) 
PUBCHEM_BIOASSAY: Navigating the Kinome. (Class of assay: other) Panel member name: JAK3

>  <BAO Format>  (273) 
assay format

>  <Target>  (273) 
CHEMBL2148

>  <Target Pref. Name>  (273) 
Tyrosine-protein kinase JAK3

>  <Target Organism>  (273) 
Homo sapiens

>  <Target Type>  (273) 
SINGLE PROTEIN

>  <Document>  (273) 
CHEMBL1201862

>  <Source>  (273) 
PubChem BioAssays

>  <Max Phase>  (273) 
0

>  <#Ro5 Violations>  (273) 
0

>  <Molecular Weight>  (273) 
221.26

>  <Ligand Efficiency BEI>  (273) 
nan

>  <Ligand Efficiency LE>  (273) 
nan

>  <Ligand Efficiency LLE>  (273) 
nan

>  <Ligand Efficiency SEI>  (273) 
nan

>  <ALogP>  (273) 
3.37

>  <Assay Organism>  (273) 
nan

>  <Assay Tissue ChEMBL ID>  (273) 
nan

>  <Assay Tissue Name>  (273) 
nan

>  <Assay Cell Type>  (273) 
nan

>  <Assay Subcellular Fraction>  (273) 
nan

>  <Organism Tax ID>  (273) 
9606

>  <BAO Format ID>  (273) 
BAO_0000019

>  <Published Type>  (273) 
nan

>  <Published Relation>  (273) 
nan

>  <Published Value>  (273) 
nan

>  <Published Units>  (273) 
nan

>  <Canonical Smiles>  (273) 
N(c1ccccc1)c2ncnc3ccccc23

>  <Data Validity Comment>  (273) 
nan

>  <Document Journal>  (273) 
nan

>  <Document Year>  (273) 
nan

>  <SRC ID>  (273) 
7

>  <UO Units>  (273) 
UO_0000065

>  <Potential Duplicate>  (273) 
False

>  <Class>  (273) 
0

$$$$

     RDKit          2D

 23 25  0  0  0  0  0  0  0  0999 V2000
    1.5000   -5.1962    0.0000 C   0  0  0  0  0  0  0  0  0  0  0  0
    0.7500   -3.8971    0.0000 C   0  0  0  0  0  0  0  0  0  0  0  0
    1.5000   -2.5981    0.0000 N   0  0  0  0  0  0  0  0  0  0  0  0
    0.7500   -1.2990    0.0000 C   0  0  0  0  0  0  0  0  0  0  0  0
    1.5000    0.0000    0.0000 C   0  0  0  0  0  0  0  0  0  0  0  0
    0.7500    1.2990    0.0000 C   0  0  0  0  0  0  0  0  0  0  0  0
   -0.7500    1.2990    0.0000 C   0  0  0  0  0  0  0  0  0  0  0  0
   -1.5000    2.5981    0.0000 N   0  0  0  0  0  0  0  0  0  0  0  0
   -0.7500    3.8971    0.0000 S   0  0  0  0  0  0  0  0  0  0  0  0
    0.5490    3.1471    0.0000 O   0  0  0  0  0  0  0  0  0  0  0  0
   -2.0490    4.6471    0.0000 O   0  0  0  0  0  0  0  0  0  0  0  0
    0.0000    5.1962    0.0000 C   0  0  0  0  0  0  0  0  0  0  0  0
    1.5000    5.1962    0.0000 C   0  0  0  0  0  0  0  0  0  0  0  0
    2.2500    6.4952    0.0000 C   0  0  0  0  0  0  0  0  0  0  0  0
    1.5000    7.7942    0.0000 C   0  0  0  0  0  0  0  0  0  0  0  0
    2.2500    9.0933    0.0000 N   0  0  0  0  0  0  0  0  0  0  0  0
    0.0000    7.7942    0.0000 C   0  0  0  0  0  0  0  0  0  0  0  0
   -0.7500    6.4952    0.0000 C   0  0  0  0  0  0  0  0  0  0  0  0
   -1.5000    0.0000    0.0000 C   0  0  0  0  0  0  0  0  0  0  0  0
   -0.7500   -1.2990    0.0000 C   0  0  0  0  0  0  0  0  0  0  0  0
   -1.5000   -2.5981    0.0000 N   0  0  0  0  0  0  0  0  0  0  0  0
   -0.7500   -3.8971    0.0000 C   0  0  0  0  0  0  0  0  0  0  0  0
   -1.5000   -5.1962    0.0000 C   0  0  0  0  0  0  0  0  0  0  0  0
  1  2  1  0
  2  3  2  0
  3  4  1  0
  4  5  2  0
  5  6  1  0
  6  7  2  0
  7  8  1  0
  8  9  1  0
  9 10  2  0
  9 11  2  0
  9 12  1  0
 12 13  2  0
 13 14  1  0
 14 15  2  0
 15 16  1  0
 15 17  1  0
 17 18  2  0
  7 19  1  0
 19 20  2  0
 20 21  1  0
 21 22  2  0
 22 23  1  0
 22  2  1  0
 20  4  1  0
 18 12  1  0
M  END
>  <Molecule>  (274) 
CHEMBL2006263

>  <Standard Type>  (274) 
Ki

>  <Standard Relation>  (274) 
>

>  <Standard Value>  (274) 
1584.89

>  <Standard Units>  (274) 
nM

>  <pChEMBL Value>  (274) 
nan

>  <Comment>  (274) 
inactive

>  <Compound Key>  (274) 
SID103904950

>  <Assay>  (274) 
CHEMBL1963742

>  <Assay Description>  (274) 
PUBCHEM_BIOASSAY: Navigating the Kinome. (Class of assay: other) Panel member name: JAK3

>  <BAO Format>  (274) 
assay format

>  <Target>  (274) 
CHEMBL2148

>  <Target Pref. Name>  (274) 
Tyrosine-protein kinase JAK3

>  <Target Organism>  (274) 
Homo sapiens

>  <Target Type>  (274) 
SINGLE PROTEIN

>  <Document>  (274) 
CHEMBL1201862

>  <Source>  (274) 
PubChem BioAssays

>  <Max Phase>  (274) 
0

>  <#Ro5 Violations>  (274) 
0

>  <Molecular Weight>  (274) 
328.4

>  <Ligand Efficiency BEI>  (274) 
nan

>  <Ligand Efficiency LE>  (274) 
nan

>  <Ligand Efficiency LLE>  (274) 
nan

>  <Ligand Efficiency SEI>  (274) 
nan

>  <ALogP>  (274) 
2.63

>  <Assay Organism>  (274) 
nan

>  <Assay Tissue ChEMBL ID>  (274) 
nan

>  <Assay Tissue Name>  (274) 
nan

>  <Assay Cell Type>  (274) 
nan

>  <Assay Subcellular Fraction>  (274) 
nan

>  <Organism Tax ID>  (274) 
9606

>  <BAO Format ID>  (274) 
BAO_0000019

>  <Published Type>  (274) 
nan

>  <Published Relation>  (274) 
nan

>  <Published Value>  (274) 
nan

>  <Published Units>  (274) 
nan

>  <Canonical Smiles>  (274) 
Cc1nc2ccc(NS(=O)(=O)c3ccc(N)cc3)cc2nc1C

>  <Data Validity Comment>  (274) 
nan

>  <Document Journal>  (274) 
nan

>  <Document Year>  (274) 
nan

>  <SRC ID>  (274) 
7

>  <UO Units>  (274) 
UO_0000065

>  <Potential Duplicate>  (274) 
False

>  <Class>  (274) 
0

$$$$

     RDKit          2D

 18 21  0  0  0  0  0  0  0  0999 V2000
    1.2760    0.0000    0.0000 C   0  0  0  0  0  0  0  0  0  0  0  0
    0.3943    1.2135    0.0000 C   0  0  0  0  0  0  0  0  0  0  0  0
   -1.0323    0.7500    0.0000 C   0  0  0  0  0  0  0  0  0  0  0  0
   -2.3313    1.5000    0.0000 C   0  0  0  0  0  0  0  0  0  0  0  0
   -3.6304    0.7500    0.0000 C   0  0  0  0  0  0  0  0  0  0  0  0
   -3.6304   -0.7500    0.0000 C   0  0  0  0  0  0  0  0  0  0  0  0
   -2.3313   -1.5000    0.0000 N   0  0  0  0  0  0  0  0  0  0  0  0
   -1.0323   -0.7500    0.0000 C   0  0  0  0  0  0  0  0  0  0  0  0
    0.3943   -1.2135    0.0000 N   0  0  0  0  0  0  0  0  0  0  0  0
   -4.9294    1.5000    0.0000 C   0  0  0  0  0  0  0  0  0  0  0  0
   -4.9294    3.0000    0.0000 C   0  0  0  0  0  0  0  0  0  0  0  0
   -6.2284    3.7500    0.0000 C   0  0  0  0  0  0  0  0  0  0  0  0
   -7.5275    3.0000    0.0000 C   0  0  0  0  0  0  0  0  0  0  0  0
   -8.9541    3.4635    0.0000 C   0  0  0  0  0  0  0  0  0  0  0  0
   -9.8357    2.2500    0.0000 N   0  0  0  0  0  0  0  0  0  0  0  0
   -8.9541    1.0365    0.0000 N   0  0  0  0  0  0  0  0  0  0  0  0
   -7.5275    1.5000    0.0000 C   0  0  0  0  0  0  0  0  0  0  0  0
   -6.2284    0.7500    0.0000 C   0  0  0  0  0  0  0  0  0  0  0  0
  1  2  2  0
  2  3  1  0
  3  4  2  0
  4  5  1  0
  5  6  2  0
  6  7  1  0
  7  8  2  0
  8  9  1  0
  5 10  1  0
 10 11  2  0
 11 12  1  0
 12 13  2  0
 13 14  1  0
 14 15  2  0
 15 16  1  0
 16 17  1  0
 17 18  2  0
  9  1  1  0
  8  3  1  0
 18 10  1  0
 17 13  1  0
M  END
>  <Molecule>  (275) 
CHEMBL1976134

>  <Standard Type>  (275) 
Ki

>  <Standard Relation>  (275) 
=

>  <Standard Value>  (275) 
1000.0

>  <Standard Units>  (275) 
nM

>  <pChEMBL Value>  (275) 
6.0

>  <Comment>  (275) 
active

>  <Compound Key>  (275) 
SID103905212

>  <Assay>  (275) 
CHEMBL1963742

>  <Assay Description>  (275) 
PUBCHEM_BIOASSAY: Navigating the Kinome. (Class of assay: other) Panel member name: JAK3

>  <BAO Format>  (275) 
assay format

>  <Target>  (275) 
CHEMBL2148

>  <Target Pref. Name>  (275) 
Tyrosine-protein kinase JAK3

>  <Target Organism>  (275) 
Homo sapiens

>  <Target Type>  (275) 
SINGLE PROTEIN

>  <Document>  (275) 
CHEMBL1201862

>  <Source>  (275) 
PubChem BioAssays

>  <Max Phase>  (275) 
0

>  <#Ro5 Violations>  (275) 
0

>  <Molecular Weight>  (275) 
234.26

>  <Ligand Efficiency BEI>  (275) 
nan

>  <Ligand Efficiency LE>  (275) 
nan

>  <Ligand Efficiency LLE>  (275) 
nan

>  <Ligand Efficiency SEI>  (275) 
nan

>  <ALogP>  (275) 
3.11

>  <Assay Organism>  (275) 
nan

>  <Assay Tissue ChEMBL ID>  (275) 
nan

>  <Assay Tissue Name>  (275) 
nan

>  <Assay Cell Type>  (275) 
nan

>  <Assay Subcellular Fraction>  (275) 
nan

>  <Organism Tax ID>  (275) 
9606

>  <BAO Format ID>  (275) 
BAO_0000019

>  <Published Type>  (275) 
nan

>  <Published Relation>  (275) 
nan

>  <Published Value>  (275) 
nan

>  <Published Units>  (275) 
nan

>  <Canonical Smiles>  (275) 
c1cc2cc(cnc2[nH]1)c3ccc4cn[nH]c4c3

>  <Data Validity Comment>  (275) 
nan

>  <Document Journal>  (275) 
nan

>  <Document Year>  (275) 
nan

>  <SRC ID>  (275) 
7

>  <UO Units>  (275) 
UO_0000065

>  <Potential Duplicate>  (275) 
False

>  <Class>  (275) 
1

$$$$

     RDKit          2D

 25 26  0  0  0  0  0  0  0  0999 V2000
    5.2500   -1.2990    0.0000 C   0  0  0  0  0  0  0  0  0  0  0  0
    3.7500   -1.2990    0.0000 C   0  0  0  0  0  0  0  0  0  0  0  0
    3.0000    0.0000    0.0000 O   0  0  0  0  0  0  0  0  0  0  0  0
    1.5000    0.0000    0.0000 C   0  0  0  0  0  0  0  0  0  0  0  0
    0.7500   -1.2990    0.0000 N   0  0  0  0  0  0  0  0  0  0  0  0
   -0.7500   -1.2990    0.0000 C   0  0  0  0  0  0  0  0  0  0  0  0
   -1.5000    0.0000    0.0000 C   0  0  0  0  0  0  0  0  0  0  0  0
   -0.7500    1.2990    0.0000 C   0  0  0  0  0  0  0  0  0  0  0  0
   -1.5000    2.5981    0.0000 N   0  0  0  0  0  0  0  0  0  0  0  0
    0.7500    1.2990    0.0000 C   0  0  0  0  0  0  0  0  0  0  0  0
    1.5000    2.5981    0.0000 Cl  0  0  0  0  0  0  0  0  0  0  0  0
   -1.5000   -2.5981    0.0000 C   0  0  0  0  0  0  0  0  0  0  0  0
   -0.7500   -3.8971    0.0000 O   0  0  0  0  0  0  0  0  0  0  0  0
   -3.0000   -2.5981    0.0000 N   0  0  0  0  0  0  0  0  0  0  0  0
   -3.7500   -3.8971    0.0000 C   0  0  0  0  0  0  0  0  0  0  0  0
   -5.2500   -3.8971    0.0000 C   0  0  0  0  0  0  0  0  0  0  0  0
   -6.0000   -2.5981    0.0000 C   0  0  0  0  0  0  0  0  0  0  0  0
   -7.5000   -2.5981    0.0000 C   0  0  0  0  0  0  0  0  0  0  0  0
   -8.2500   -3.8971    0.0000 C   0  0  0  0  0  0  0  0  0  0  0  0
   -7.5000   -5.1962    0.0000 C   0  0  0  0  0  0  0  0  0  0  0  0
   -6.0000   -5.1962    0.0000 C   0  0  0  0  0  0  0  0  0  0  0  0
   -5.2500   -6.4952    0.0000 S   0  0  0  0  0  0  0  0  0  0  0  0
   -6.5490   -7.2452    0.0000 O   0  0  0  0  0  0  0  0  0  0  0  0
   -3.9510   -5.7452    0.0000 O   0  0  0  0  0  0  0  0  0  0  0  0
   -4.5000   -7.7942    0.0000 N   0  0  0  0  0  0  0  0  0  0  0  0
  1  2  1  0
  2  3  1  0
  3  4  1  0
  4  5  2  0
  5  6  1  0
  6  7  2  0
  7  8  1  0
  8  9  1  0
  8 10  2  0
 10 11  1  0
  6 12  1  0
 12 13  2  0
 12 14  1  0
 14 15  1  0
 15 16  1  0
 16 17  2  0
 17 18  1  0
 18 19  2  0
 19 20  1  0
 20 21  2  0
 21 22  1  0
 22 23  2  0
 22 24  2  0
 22 25  1  0
 10  4  1  0
 21 16  1  0
M  END
>  <Molecule>  (276) 
CHEMBL2006581

>  <Standard Type>  (276) 
Ki

>  <Standard Relation>  (276) 
>

>  <Standard Value>  (276) 
1584.89

>  <Standard Units>  (276) 
nM

>  <pChEMBL Value>  (276) 
nan

>  <Comment>  (276) 
inactive

>  <Compound Key>  (276) 
SID103905388

>  <Assay>  (276) 
CHEMBL1963742

>  <Assay Description>  (276) 
PUBCHEM_BIOASSAY: Navigating the Kinome. (Class of assay: other) Panel member name: JAK3

>  <BAO Format>  (276) 
assay format

>  <Target>  (276) 
CHEMBL2148

>  <Target Pref. Name>  (276) 
Tyrosine-protein kinase JAK3

>  <Target Organism>  (276) 
Homo sapiens

>  <Target Type>  (276) 
SINGLE PROTEIN

>  <Document>  (276) 
CHEMBL1201862

>  <Source>  (276) 
PubChem BioAssays

>  <Max Phase>  (276) 
0

>  <#Ro5 Violations>  (276) 
0

>  <Molecular Weight>  (276) 
384.85

>  <Ligand Efficiency BEI>  (276) 
nan

>  <Ligand Efficiency LE>  (276) 
nan

>  <Ligand Efficiency LLE>  (276) 
nan

>  <Ligand Efficiency SEI>  (276) 
nan

>  <ALogP>  (276) 
1.29

>  <Assay Organism>  (276) 
nan

>  <Assay Tissue ChEMBL ID>  (276) 
nan

>  <Assay Tissue Name>  (276) 
nan

>  <Assay Cell Type>  (276) 
nan

>  <Assay Subcellular Fraction>  (276) 
nan

>  <Organism Tax ID>  (276) 
9606

>  <BAO Format ID>  (276) 
BAO_0000019

>  <Published Type>  (276) 
nan

>  <Published Relation>  (276) 
nan

>  <Published Value>  (276) 
nan

>  <Published Units>  (276) 
nan

>  <Canonical Smiles>  (276) 
CCOc1nc(cc(N)c1Cl)C(=O)NCc2ccccc2S(=O)(=O)N

>  <Data Validity Comment>  (276) 
nan

>  <Document Journal>  (276) 
nan

>  <Document Year>  (276) 
nan

>  <SRC ID>  (276) 
7

>  <UO Units>  (276) 
UO_0000065

>  <Potential Duplicate>  (276) 
False

>  <Class>  (276) 
0

$$$$

     RDKit          2D

 35 39  0  0  0  0  0  0  0  0999 V2000
    8.0406   12.1352    0.0000 C   0  0  0  0  0  0  0  0  0  0  0  0
    7.5771   10.7086    0.0000 C   0  0  0  0  0  0  0  0  0  0  0  0
    8.5808    9.5939    0.0000 C   0  0  0  0  0  0  0  0  0  0  0  0
    8.1173    8.1673    0.0000 C   0  0  0  0  0  0  0  0  0  0  0  0
    6.6501    7.8555    0.0000 C   0  0  0  0  0  0  0  0  0  0  0  0
    5.6464    8.9702    0.0000 C   0  0  0  0  0  0  0  0  0  0  0  0
    4.1791    8.6583    0.0000 N   0  0  0  0  0  0  0  0  0  0  0  0
    3.7156    7.2317    0.0000 C   0  0  0  0  0  0  0  0  0  0  0  0
    4.7193    6.1170    0.0000 O   0  0  0  0  0  0  0  0  0  0  0  0
    2.2484    6.9199    0.0000 N   0  0  0  0  0  0  0  0  0  0  0  0
    1.7849    5.4933    0.0000 C   0  0  0  0  0  0  0  0  0  0  0  0
    0.3177    5.1814    0.0000 C   0  0  0  0  0  0  0  0  0  0  0  0
   -0.1459    3.7548    0.0000 C   0  0  0  0  0  0  0  0  0  0  0  0
    0.8578    2.6401    0.0000 C   0  0  0  0  0  0  0  0  0  0  0  0
    2.3250    2.9520    0.0000 C   0  0  0  0  0  0  0  0  0  0  0  0
    2.7886    4.3786    0.0000 C   0  0  0  0  0  0  0  0  0  0  0  0
    0.3943    1.2135    0.0000 C   0  0  0  0  0  0  0  0  0  0  0  0
    1.2760    0.0000    0.0000 C   0  0  0  0  0  0  0  0  0  0  0  0
    0.3943   -1.2135    0.0000 S   0  0  0  0  0  0  0  0  0  0  0  0
   -1.0323   -0.7500    0.0000 C   0  0  0  0  0  0  0  0  0  0  0  0
   -2.3313   -1.5000    0.0000 C   0  0  0  0  0  0  0  0  0  0  0  0
   -3.6304   -0.7500    0.0000 C   0  0  0  0  0  0  0  0  0  0  0  0
   -3.6304    0.7500    0.0000 N   0  0  0  0  0  0  0  0  0  0  0  0
   -2.3313    1.5000    0.0000 C   0  0  0  0  0  0  0  0  0  0  0  0
   -2.3313    3.0000    0.0000 N   0  0  0  0  0  0  0  0  0  0  0  0
   -1.0323    0.7500    0.0000 C   0  0  0  0  0  0  0  0  0  0  0  0
   -2.3313   -3.0000    0.0000 C   0  0  0  0  0  0  0  0  0  0  0  0
   -2.3313   -4.5000    0.0000 C   0  0  0  0  0  0  0  0  0  0  0  0
   -2.3313   -6.0000    0.0000 C   0  0  0  0  0  0  0  0  0  0  0  0
   -3.6304   -6.7500    0.0000 N   0  0  0  0  0  0  0  0  0  0  0  0
   -3.7872   -8.2418    0.0000 C   0  0  0  0  0  0  0  0  0  0  0  0
   -5.2544   -8.5537    0.0000 C   0  0  0  0  0  0  0  0  0  0  0  0
   -6.0044   -7.2546    0.0000 C   0  0  0  0  0  0  0  0  0  0  0  0
   -5.0007   -6.1399    0.0000 C   0  0  0  0  0  0  0  0  0  0  0  0
    6.1099   10.3968    0.0000 C   0  0  0  0  0  0  0  0  0  0  0  0
  1  2  1  0
  2  3  2  0
  3  4  1  0
  4  5  2  0
  5  6  1  0
  6  7  1  0
  7  8  1  0
  8  9  2  0
  8 10  1  0
 10 11  1  0
 11 12  2  0
 12 13  1  0
 13 14  2  0
 14 15  1  0
 15 16  2  0
 14 17  1  0
 17 18  2  0
 18 19  1  0
 19 20  1  0
 20 21  2  0
 21 22  1  0
 22 23  2  0
 23 24  1  0
 24 25  1  0
 24 26  2  0
 21 27  1  0
 27 28  3  0
 28 29  1  0
 29 30  1  0
 30 31  1  0
 31 32  1  0
 32 33  1  0
 33 34  1  0
  6 35  2  0
 35  2  1  0
 16 11  1  0
 26 17  1  0
 26 20  1  0
 34 30  1  0
M  END
>  <Molecule>  (277) 
CHEMBL1973211

>  <Standard Type>  (277) 
Ki

>  <Standard Relation>  (277) 
>

>  <Standard Value>  (277) 
1584.89

>  <Standard Units>  (277) 
nM

>  <pChEMBL Value>  (277) 
nan

>  <Comment>  (277) 
inactive

>  <Compound Key>  (277) 
SID103904281

>  <Assay>  (277) 
CHEMBL1963742

>  <Assay Description>  (277) 
PUBCHEM_BIOASSAY: Navigating the Kinome. (Class of assay: other) Panel member name: JAK3

>  <BAO Format>  (277) 
assay format

>  <Target>  (277) 
CHEMBL2148

>  <Target Pref. Name>  (277) 
Tyrosine-protein kinase JAK3

>  <Target Organism>  (277) 
Homo sapiens

>  <Target Type>  (277) 
SINGLE PROTEIN

>  <Document>  (277) 
CHEMBL1201862

>  <Source>  (277) 
PubChem BioAssays

>  <Max Phase>  (277) 
0

>  <#Ro5 Violations>  (277) 
1

>  <Molecular Weight>  (277) 
481.63

>  <Ligand Efficiency BEI>  (277) 
nan

>  <Ligand Efficiency LE>  (277) 
nan

>  <Ligand Efficiency LLE>  (277) 
nan

>  <Ligand Efficiency SEI>  (277) 
nan

>  <ALogP>  (277) 
5.95

>  <Assay Organism>  (277) 
nan

>  <Assay Tissue ChEMBL ID>  (277) 
nan

>  <Assay Tissue Name>  (277) 
nan

>  <Assay Cell Type>  (277) 
nan

>  <Assay Subcellular Fraction>  (277) 
nan

>  <Organism Tax ID>  (277) 
9606

>  <BAO Format ID>  (277) 
BAO_0000019

>  <Published Type>  (277) 
nan

>  <Published Relation>  (277) 
nan

>  <Published Value>  (277) 
nan

>  <Published Units>  (277) 
nan

>  <Canonical Smiles>  (277) 
Cc1cccc(NC(=O)Nc2ccc(cc2)c3csc4c(cnc(N)c34)C#CCN5CCCC5)c1

>  <Data Validity Comment>  (277) 
nan

>  <Document Journal>  (277) 
nan

>  <Document Year>  (277) 
nan

>  <SRC ID>  (277) 
7

>  <UO Units>  (277) 
UO_0000065

>  <Potential Duplicate>  (277) 
False

>  <Class>  (277) 
0

$$$$

     RDKit          2D

 21 24  0  0  0  0  0  0  0  0999 V2000
    3.0000   -5.1962    0.0000 C   0  0  0  0  0  0  0  0  0  0  0  0
    1.5000   -5.1962    0.0000 C   0  0  0  0  0  0  0  0  0  0  0  0
    0.7500   -3.8971    0.0000 C   0  0  0  0  0  0  0  0  0  0  0  0
    1.5000   -2.5981    0.0000 N   0  0  0  0  0  0  0  0  0  0  0  0
    3.0000   -2.5981    0.0000 C   0  0  0  0  0  0  0  0  0  0  0  0
    3.7500   -3.8971    0.0000 C   0  0  0  0  0  0  0  0  0  0  0  0
    0.7500   -1.2990    0.0000 C   0  0  0  0  0  0  0  0  0  0  0  0
    1.5000    0.0000    0.0000 N   0  0  0  0  0  0  0  0  0  0  0  0
    0.7500    1.2990    0.0000 C   0  0  0  0  0  0  0  0  0  0  0  0
   -0.7500    1.2990    0.0000 N   0  0  0  0  0  0  0  0  0  0  0  0
   -1.5000    0.0000    0.0000 C   0  0  0  0  0  0  0  0  0  0  0  0
   -2.9672   -0.3119    0.0000 N   0  0  0  0  0  0  0  0  0  0  0  0
   -3.1240   -1.8037    0.0000 C   0  0  0  0  0  0  0  0  0  0  0  0
   -1.7537   -2.4138    0.0000 C   0  0  0  0  0  0  0  0  0  0  0  0
   -1.4418   -3.8810    0.0000 C   0  0  0  0  0  0  0  0  0  0  0  0
   -2.5565   -4.8847    0.0000 C   0  0  0  0  0  0  0  0  0  0  0  0
   -2.2447   -6.3519    0.0000 C   0  0  0  0  0  0  0  0  0  0  0  0
   -0.8181   -6.8154    0.0000 C   0  0  0  0  0  0  0  0  0  0  0  0
    0.2966   -5.8117    0.0000 C   0  0  0  0  0  0  0  0  0  0  0  0
   -0.0152   -4.3445    0.0000 C   0  0  0  0  0  0  0  0  0  0  0  0
   -0.7500   -1.2990    0.0000 C   0  0  0  0  0  0  0  0  0  0  0  0
  1  2  1  0
  2  3  1  0
  3  4  1  0
  4  5  1  0
  5  6  1  0
  4  7  1  0
  7  8  2  0
  8  9  1  0
  9 10  2  0
 10 11  1  0
 11 12  1  0
 12 13  1  0
 13 14  2  0
 14 15  1  0
 15 16  2  0
 16 17  1  0
 17 18  2  0
 18 19  1  0
 19 20  2  0
 14 21  1  0
  6  1  1  0
 21  7  1  0
 21 11  2  0
 20 15  1  0
M  END
>  <Molecule>  (278) 
CHEMBL1998953

>  <Standard Type>  (278) 
Ki

>  <Standard Relation>  (278) 
>

>  <Standard Value>  (278) 
5011.87

>  <Standard Units>  (278) 
nM

>  <pChEMBL Value>  (278) 
nan

>  <Comment>  (278) 
inactive

>  <Compound Key>  (278) 
SID103904503

>  <Assay>  (278) 
CHEMBL1963742

>  <Assay Description>  (278) 
PUBCHEM_BIOASSAY: Navigating the Kinome. (Class of assay: other) Panel member name: JAK3

>  <BAO Format>  (278) 
assay format

>  <Target>  (278) 
CHEMBL2148

>  <Target Pref. Name>  (278) 
Tyrosine-protein kinase JAK3

>  <Target Organism>  (278) 
Homo sapiens

>  <Target Type>  (278) 
SINGLE PROTEIN

>  <Document>  (278) 
CHEMBL1201862

>  <Source>  (278) 
PubChem BioAssays

>  <Max Phase>  (278) 
0

>  <#Ro5 Violations>  (278) 
0

>  <Molecular Weight>  (278) 
278.36

>  <Ligand Efficiency BEI>  (278) 
nan

>  <Ligand Efficiency LE>  (278) 
nan

>  <Ligand Efficiency LLE>  (278) 
nan

>  <Ligand Efficiency SEI>  (278) 
nan

>  <ALogP>  (278) 
3.62

>  <Assay Organism>  (278) 
nan

>  <Assay Tissue ChEMBL ID>  (278) 
nan

>  <Assay Tissue Name>  (278) 
nan

>  <Assay Cell Type>  (278) 
nan

>  <Assay Subcellular Fraction>  (278) 
nan

>  <Organism Tax ID>  (278) 
9606

>  <BAO Format ID>  (278) 
BAO_0000019

>  <Published Type>  (278) 
nan

>  <Published Relation>  (278) 
nan

>  <Published Value>  (278) 
nan

>  <Published Units>  (278) 
nan

>  <Canonical Smiles>  (278) 
C1CCN(CC1)c2ncnc3[nH]cc(c4ccccc4)c23

>  <Data Validity Comment>  (278) 
nan

>  <Document Journal>  (278) 
nan

>  <Document Year>  (278) 
nan

>  <SRC ID>  (278) 
7

>  <UO Units>  (278) 
UO_0000065

>  <Potential Duplicate>  (278) 
False

>  <Class>  (278) 
0

$$$$

     RDKit          2D

 28 30  0  0  0  0  0  0  0  0999 V2000
    6.0000   -2.5981    0.0000 C   0  0  0  0  0  0  0  0  0  0  0  0
    5.2500   -1.2990    0.0000 C   0  0  0  0  0  0  0  0  0  0  0  0
    3.7500   -1.2990    0.0000 C   0  0  0  0  0  0  0  0  0  0  0  0
    3.0000    0.0000    0.0000 O   0  0  0  0  0  0  0  0  0  0  0  0
    1.5000    0.0000    0.0000 C   0  0  0  0  0  0  0  0  0  0  0  0
    0.7500   -1.2990    0.0000 C   0  0  0  0  0  0  0  0  0  0  0  0
   -0.7500   -1.2990    0.0000 C   0  0  0  0  0  0  0  0  0  0  0  0
   -1.5000    0.0000    0.0000 C   0  0  0  0  0  0  0  0  0  0  0  0
   -0.7500    1.2990    0.0000 C   0  0  0  0  0  0  0  0  0  0  0  0
    0.7500    1.2990    0.0000 C   0  0  0  0  0  0  0  0  0  0  0  0
   -1.5000    2.5981    0.0000 C   0  0  0  0  0  0  0  0  0  0  0  0
   -0.7500    3.8971    0.0000 C   0  0  0  0  0  0  0  0  0  0  0  0
   -3.0000    2.5981    0.0000 N   0  0  0  0  0  0  0  0  0  0  0  0
   -3.7500    3.8971    0.0000 C   0  0  0  0  0  0  0  0  0  0  0  0
   -3.0000    5.1962    0.0000 O   0  0  0  0  0  0  0  0  0  0  0  0
   -5.2500    3.8971    0.0000 C   0  0  0  0  0  0  0  0  0  0  0  0
   -6.0000    5.1962    0.0000 C   0  0  0  0  0  0  0  0  0  0  0  0
   -7.5000    5.1962    0.0000 C   0  0  0  0  0  0  0  0  0  0  0  0
   -8.2500    3.8971    0.0000 C   0  0  0  0  0  0  0  0  0  0  0  0
   -7.5000    2.5981    0.0000 C   0  0  0  0  0  0  0  0  0  0  0  0
   -6.0000    2.5981    0.0000 C   0  0  0  0  0  0  0  0  0  0  0  0
   -9.7500    3.8971    0.0000 C   0  0  0  0  0  0  0  0  0  0  0  0
  -10.5000    5.1962    0.0000 C   0  0  0  0  0  0  0  0  0  0  0  0
  -12.0000    5.1962    0.0000 C   0  0  0  0  0  0  0  0  0  0  0  0
  -12.7500    3.8971    0.0000 N   0  0  0  0  0  0  0  0  0  0  0  0
  -12.0000    2.5981    0.0000 C   0  0  0  0  0  0  0  0  0  0  0  0
  -10.5000    2.5981    0.0000 C   0  0  0  0  0  0  0  0  0  0  0  0
   -9.7500    1.2990    0.0000 F   0  0  0  0  0  0  0  0  0  0  0  0
  1  2  1  0
  2  3  1  0
  3  4  1  0
  4  5  1  0
  5  6  2  0
  6  7  1  0
  7  8  2  0
  8  9  1  0
  9 10  2  0
  9 11  1  0
 11 12  1  0
 11 13  1  0
 13 14  1  0
 14 15  2  0
 14 16  1  0
 16 17  2  0
 17 18  1  0
 18 19  2  0
 19 20  1  0
 20 21  2  0
 19 22  1  0
 22 23  2  0
 23 24  1  0
 24 25  2  0
 25 26  1  0
 26 27  2  0
 27 28  1  0
 10  5  1  0
 21 16  1  0
 27 22  1  0
M  END
>  <Molecule>  (279) 
CHEMBL1971606

>  <Standard Type>  (279) 
Ki

>  <Standard Relation>  (279) 
>

>  <Standard Value>  (279) 
5011.87

>  <Standard Units>  (279) 
nM

>  <pChEMBL Value>  (279) 
nan

>  <Comment>  (279) 
inactive

>  <Compound Key>  (279) 
SID103904583

>  <Assay>  (279) 
CHEMBL1963742

>  <Assay Description>  (279) 
PUBCHEM_BIOASSAY: Navigating the Kinome. (Class of assay: other) Panel member name: JAK3

>  <BAO Format>  (279) 
assay format

>  <Target>  (279) 
CHEMBL2148

>  <Target Pref. Name>  (279) 
Tyrosine-protein kinase JAK3

>  <Target Organism>  (279) 
Homo sapiens

>  <Target Type>  (279) 
SINGLE PROTEIN

>  <Document>  (279) 
CHEMBL1201862

>  <Source>  (279) 
PubChem BioAssays

>  <Max Phase>  (279) 
0

>  <#Ro5 Violations>  (279) 
1

>  <Molecular Weight>  (279) 
378.45

>  <Ligand Efficiency BEI>  (279) 
nan

>  <Ligand Efficiency LE>  (279) 
nan

>  <Ligand Efficiency LLE>  (279) 
nan

>  <Ligand Efficiency SEI>  (279) 
nan

>  <ALogP>  (279) 
5.17

>  <Assay Organism>  (279) 
nan

>  <Assay Tissue ChEMBL ID>  (279) 
nan

>  <Assay Tissue Name>  (279) 
nan

>  <Assay Cell Type>  (279) 
nan

>  <Assay Subcellular Fraction>  (279) 
nan

>  <Organism Tax ID>  (279) 
9606

>  <BAO Format ID>  (279) 
BAO_0000019

>  <Published Type>  (279) 
nan

>  <Published Relation>  (279) 
nan

>  <Published Value>  (279) 
nan

>  <Published Units>  (279) 
nan

>  <Canonical Smiles>  (279) 
CCCOc1cccc(c1)C(C)NC(=O)c2ccc(cc2)c3ccncc3F

>  <Data Validity Comment>  (279) 
nan

>  <Document Journal>  (279) 
nan

>  <Document Year>  (279) 
nan

>  <SRC ID>  (279) 
7

>  <UO Units>  (279) 
UO_0000065

>  <Potential Duplicate>  (279) 
False

>  <Class>  (279) 
0

$$$$

     RDKit          2D

 27 29  0  0  0  0  0  0  0  0999 V2000
   -0.6546  -10.1364    0.0000 C   0  0  0  0  0  0  0  0  0  0  0  0
   -0.8113   -8.6446    0.0000 C   0  0  0  0  0  0  0  0  0  0  0  0
   -2.1817   -8.0345    0.0000 C   0  0  0  0  0  0  0  0  0  0  0  0
    0.4022   -7.7629    0.0000 O   0  0  0  0  0  0  0  0  0  0  0  0
    0.2454   -6.2711    0.0000 C   0  0  0  0  0  0  0  0  0  0  0  0
    1.3601   -5.2674    0.0000 C   0  0  0  0  0  0  0  0  0  0  0  0
    0.7500   -3.8971    0.0000 C   0  0  0  0  0  0  0  0  0  0  0  0
    1.5000   -2.5981    0.0000 N   0  0  0  0  0  0  0  0  0  0  0  0
    0.7500   -1.2990    0.0000 C   0  0  0  0  0  0  0  0  0  0  0  0
    1.5000    0.0000    0.0000 N   0  0  0  0  0  0  0  0  0  0  0  0
    0.7500    1.2990    0.0000 C   0  0  0  0  0  0  0  0  0  0  0  0
    1.5000    2.5981    0.0000 N   0  0  0  0  0  0  0  0  0  0  0  0
    3.0000    2.5981    0.0000 C   0  0  0  0  0  0  0  0  0  0  0  0
    3.7500    3.8971    0.0000 C   0  0  0  0  0  0  0  0  0  0  0  0
    3.7500    1.2990    0.0000 C   0  0  0  0  0  0  0  0  0  0  0  0
    3.0000   -0.0000    0.0000 C   0  0  0  0  0  0  0  0  0  0  0  0
    3.7500   -1.2990    0.0000 C   0  0  0  0  0  0  0  0  0  0  0  0
    5.2500   -1.2990    0.0000 C   0  0  0  0  0  0  0  0  0  0  0  0
    6.0000   -2.5981    0.0000 F   0  0  0  0  0  0  0  0  0  0  0  0
    6.0000   -0.0000    0.0000 C   0  0  0  0  0  0  0  0  0  0  0  0
    5.2500    1.2990    0.0000 N   0  0  0  0  0  0  0  0  0  0  0  0
   -0.7500    1.2990    0.0000 N   0  0  0  0  0  0  0  0  0  0  0  0
   -1.5000    0.0000    0.0000 C   0  0  0  0  0  0  0  0  0  0  0  0
   -0.7500   -1.2990    0.0000 C   0  0  0  0  0  0  0  0  0  0  0  0
   -1.5000   -2.5981    0.0000 Cl  0  0  0  0  0  0  0  0  0  0  0  0
   -0.7418   -4.0539    0.0000 N   0  0  0  0  0  0  0  0  0  0  0  0
   -1.0537   -5.5211    0.0000 N   0  0  0  0  0  0  0  0  0  0  0  0
  1  2  1  0
  2  3  1  0
  2  4  1  0
  4  5  1  0
  5  6  2  0
  6  7  1  0
  7  8  1  0
  8  9  1  0
  9 10  2  0
 10 11  1  0
 11 12  1  0
 12 13  1  0
 13 14  1  0
 13 15  1  0
 15 16  2  0
 16 17  1  0
 17 18  2  0
 18 19  1  0
 18 20  1  0
 20 21  2  0
 11 22  2  0
 22 23  1  0
 23 24  2  0
 24 25  1  0
  7 26  2  0
 26 27  1  0
 27  5  1  0
 24  9  1  0
 21 15  1  0
M  END
>  <Molecule>  (280) 
CHEMBL2007421

>  <Standard Type>  (280) 
Ki

>  <Standard Relation>  (280) 
=

>  <Standard Value>  (280) 
1995.26

>  <Standard Units>  (280) 
nM

>  <pChEMBL Value>  (280) 
5.7

>  <Comment>  (280) 
active

>  <Compound Key>  (280) 
SID103905657

>  <Assay>  (280) 
CHEMBL1963742

>  <Assay Description>  (280) 
PUBCHEM_BIOASSAY: Navigating the Kinome. (Class of assay: other) Panel member name: JAK3

>  <BAO Format>  (280) 
assay format

>  <Target>  (280) 
CHEMBL2148

>  <Target Pref. Name>  (280) 
Tyrosine-protein kinase JAK3

>  <Target Organism>  (280) 
Homo sapiens

>  <Target Type>  (280) 
SINGLE PROTEIN

>  <Document>  (280) 
CHEMBL1201862

>  <Source>  (280) 
PubChem BioAssays

>  <Max Phase>  (280) 
0

>  <#Ro5 Violations>  (280) 
0

>  <Molecular Weight>  (280) 
391.84

>  <Ligand Efficiency BEI>  (280) 
nan

>  <Ligand Efficiency LE>  (280) 
nan

>  <Ligand Efficiency LLE>  (280) 
nan

>  <Ligand Efficiency SEI>  (280) 
nan

>  <ALogP>  (280) 
4.09

>  <Assay Organism>  (280) 
nan

>  <Assay Tissue ChEMBL ID>  (280) 
nan

>  <Assay Tissue Name>  (280) 
nan

>  <Assay Cell Type>  (280) 
nan

>  <Assay Subcellular Fraction>  (280) 
nan

>  <Organism Tax ID>  (280) 
9606

>  <BAO Format ID>  (280) 
BAO_0000019

>  <Published Type>  (280) 
nan

>  <Published Relation>  (280) 
nan

>  <Published Value>  (280) 
nan

>  <Published Units>  (280) 
nan

>  <Canonical Smiles>  (280) 
CC(C)Oc1cc(Nc2nc(NC(C)c3ccc(F)cn3)ncc2Cl)n[nH]1

>  <Data Validity Comment>  (280) 
nan

>  <Document Journal>  (280) 
nan

>  <Document Year>  (280) 
nan

>  <SRC ID>  (280) 
7

>  <UO Units>  (280) 
UO_0000065

>  <Potential Duplicate>  (280) 
False

>  <Class>  (280) 
1

$$$$

     RDKit          2D

 23 25  0  0  0  0  0  0  0  0999 V2000
   -3.0000   -2.5981    0.0000 C   0  0  0  0  0  0  0  0  0  0  0  0
   -1.5000   -2.5981    0.0000 C   0  0  0  0  0  0  0  0  0  0  0  0
   -0.7500   -3.8971    0.0000 C   0  0  0  0  0  0  0  0  0  0  0  0
   -1.5000   -5.1962    0.0000 Cl  0  0  0  0  0  0  0  0  0  0  0  0
    0.7500   -3.8971    0.0000 C   0  0  0  0  0  0  0  0  0  0  0  0
    1.5000   -2.5981    0.0000 N   0  0  0  0  0  0  0  0  0  0  0  0
    0.7500   -1.2990    0.0000 C   0  0  0  0  0  0  0  0  0  0  0  0
    1.5000    0.0000    0.0000 N   0  0  0  0  0  0  0  0  0  0  0  0
    0.7500    1.2990    0.0000 C   0  0  0  0  0  0  0  0  0  0  0  0
   -0.7500    1.2990    0.0000 C   0  0  0  0  0  0  0  0  0  0  0  0
   -1.5000    2.5981    0.0000 C   0  0  0  0  0  0  0  0  0  0  0  0
   -3.0000    2.5981    0.0000 O   0  0  0  0  0  0  0  0  0  0  0  0
   -0.7500    3.8971    0.0000 O   0  0  0  0  0  0  0  0  0  0  0  0
   -1.5000    0.0000    0.0000 C   0  0  0  0  0  0  0  0  0  0  0  0
   -3.0000    0.0000    0.0000 O   0  0  0  0  0  0  0  0  0  0  0  0
   -0.7500   -1.2990    0.0000 C   0  0  0  0  0  0  0  0  0  0  0  0
    1.5000   -5.1962    0.0000 N   0  0  0  0  0  0  0  0  0  0  0  0
    2.9918   -5.3529    0.0000 C   0  0  0  0  0  0  0  0  0  0  0  0
    3.3037   -6.8202    0.0000 C   0  0  0  0  0  0  0  0  0  0  0  0
    2.0046   -7.5702    0.0000 C   0  0  0  0  0  0  0  0  0  0  0  0
    1.8478   -9.0619    0.0000 C   0  0  0  0  0  0  0  0  0  0  0  0
    0.4775   -9.6721    0.0000 N   0  0  0  0  0  0  0  0  0  0  0  0
    0.8899   -6.5665    0.0000 C   0  0  0  0  0  0  0  0  0  0  0  0
  1  2  1  0
  2  3  2  0
  3  4  1  0
  3  5  1  0
  5  6  2  0
  6  7  1  0
  7  8  1  0
  8  9  1  0
  9 10  2  0
 10 11  1  0
 11 12  2  0
 11 13  1  0
 10 14  1  0
 14 15  2  0
 14 16  1  0
  5 17  1  0
 17 18  1  0
 18 19  1  0
 19 20  1  0
 20 21  1  0
 21 22  1  0
 20 23  1  0
 16  2  1  0
 16  7  2  0
 23 17  1  0
M  END
>  <Molecule>  (281) 
CHEMBL1999774

>  <Standard Type>  (281) 
Ki

>  <Standard Relation>  (281) 
>

>  <Standard Value>  (281) 
1584.89

>  <Standard Units>  (281) 
nM

>  <pChEMBL Value>  (281) 
nan

>  <Comment>  (281) 
inactive

>  <Compound Key>  (281) 
SID103905288

>  <Assay>  (281) 
CHEMBL1963742

>  <Assay Description>  (281) 
PUBCHEM_BIOASSAY: Navigating the Kinome. (Class of assay: other) Panel member name: JAK3

>  <BAO Format>  (281) 
assay format

>  <Target>  (281) 
CHEMBL2148

>  <Target Pref. Name>  (281) 
Tyrosine-protein kinase JAK3

>  <Target Organism>  (281) 
Homo sapiens

>  <Target Type>  (281) 
SINGLE PROTEIN

>  <Document>  (281) 
CHEMBL1201862

>  <Source>  (281) 
PubChem BioAssays

>  <Max Phase>  (281) 
0

>  <#Ro5 Violations>  (281) 
0

>  <Molecular Weight>  (281) 
336.78

>  <Ligand Efficiency BEI>  (281) 
nan

>  <Ligand Efficiency LE>  (281) 
nan

>  <Ligand Efficiency LLE>  (281) 
nan

>  <Ligand Efficiency SEI>  (281) 
nan

>  <ALogP>  (281) 
1.37

>  <Assay Organism>  (281) 
nan

>  <Assay Tissue ChEMBL ID>  (281) 
nan

>  <Assay Tissue Name>  (281) 
nan

>  <Assay Cell Type>  (281) 
nan

>  <Assay Subcellular Fraction>  (281) 
nan

>  <Organism Tax ID>  (281) 
9606

>  <BAO Format ID>  (281) 
BAO_0000019

>  <Published Type>  (281) 
nan

>  <Published Relation>  (281) 
nan

>  <Published Value>  (281) 
nan

>  <Published Units>  (281) 
nan

>  <Canonical Smiles>  (281) 
Cc1c(Cl)c(nc2NC=C(C(=O)O)C(=O)c12)N3CCC(CN)C3

>  <Data Validity Comment>  (281) 
nan

>  <Document Journal>  (281) 
nan

>  <Document Year>  (281) 
nan

>  <SRC ID>  (281) 
7

>  <UO Units>  (281) 
UO_0000065

>  <Potential Duplicate>  (281) 
False

>  <Class>  (281) 
0

$$$$

     RDKit          2D

 25 27  0  0  0  0  0  0  0  0999 V2000
    0.7500   -9.0933    0.0000 O   0  0  0  0  0  0  0  0  0  0  0  0
    1.5000   -7.7942    0.0000 C   0  0  0  0  0  0  0  0  0  0  0  0
    0.7500   -6.4952    0.0000 C   0  0  0  0  0  0  0  0  0  0  0  0
    1.5000   -5.1962    0.0000 C   0  0  0  0  0  0  0  0  0  0  0  0
    0.7500   -3.8971    0.0000 N   0  0  0  0  0  0  0  0  0  0  0  0
    1.5000   -2.5981    0.0000 C   0  0  0  0  0  0  0  0  0  0  0  0
    3.0000   -2.5981    0.0000 O   0  0  0  0  0  0  0  0  0  0  0  0
    0.7500   -1.2990    0.0000 C   0  0  0  0  0  0  0  0  0  0  0  0
    1.5000    0.0000    0.0000 C   0  0  0  0  0  0  0  0  0  0  0  0
    0.7500    1.2990    0.0000 C   0  0  0  0  0  0  0  0  0  0  0  0
   -0.7500    1.2990    0.0000 C   0  0  0  0  0  0  0  0  0  0  0  0
   -1.5000    0.0000    0.0000 C   0  0  0  0  0  0  0  0  0  0  0  0
   -0.7500   -1.2990    0.0000 C   0  0  0  0  0  0  0  0  0  0  0  0
   -1.5000    2.5981    0.0000 C   0  0  0  0  0  0  0  0  0  0  0  0
   -0.7500    3.8971    0.0000 C   0  0  0  0  0  0  0  0  0  0  0  0
   -1.5000    5.1962    0.0000 C   0  0  0  0  0  0  0  0  0  0  0  0
   -3.0000    5.1962    0.0000 N   0  0  0  0  0  0  0  0  0  0  0  0
   -3.7500    3.8971    0.0000 C   0  0  0  0  0  0  0  0  0  0  0  0
   -3.0000    2.5981    0.0000 C   0  0  0  0  0  0  0  0  0  0  0  0
    3.0000   -5.1962    0.0000 C   0  0  0  0  0  0  0  0  0  0  0  0
    3.7500   -6.4952    0.0000 C   0  0  0  0  0  0  0  0  0  0  0  0
    5.2500   -6.4952    0.0000 C   0  0  0  0  0  0  0  0  0  0  0  0
    6.0000   -5.1962    0.0000 C   0  0  0  0  0  0  0  0  0  0  0  0
    5.2500   -3.8971    0.0000 C   0  0  0  0  0  0  0  0  0  0  0  0
    3.7500   -3.8971    0.0000 C   0  0  0  0  0  0  0  0  0  0  0  0
  1  2  1  0
  2  3  1  0
  3  4  1  0
  4  5  1  0
  5  6  1  0
  6  7  2  0
  6  8  1  0
  8  9  2  0
  9 10  1  0
 10 11  2  0
 11 12  1  0
 12 13  2  0
 11 14  1  0
 14 15  2  0
 15 16  1  0
 16 17  2  0
 17 18  1  0
 18 19  2  0
  4 20  1  0
 20 21  2  0
 21 22  1  0
 22 23  2  0
 23 24  1  0
 24 25  2  0
 13  8  1  0
 19 14  1  0
 25 20  1  0
M  END
>  <Molecule>  (282) 
CHEMBL1986143

>  <Standard Type>  (282) 
Ki

>  <Standard Relation>  (282) 
>

>  <Standard Value>  (282) 
5011.87

>  <Standard Units>  (282) 
nM

>  <pChEMBL Value>  (282) 
nan

>  <Comment>  (282) 
inactive

>  <Compound Key>  (282) 
SID103904578

>  <Assay>  (282) 
CHEMBL1963742

>  <Assay Description>  (282) 
PUBCHEM_BIOASSAY: Navigating the Kinome. (Class of assay: other) Panel member name: JAK3

>  <BAO Format>  (282) 
assay format

>  <Target>  (282) 
CHEMBL2148

>  <Target Pref. Name>  (282) 
Tyrosine-protein kinase JAK3

>  <Target Organism>  (282) 
Homo sapiens

>  <Target Type>  (282) 
SINGLE PROTEIN

>  <Document>  (282) 
CHEMBL1201862

>  <Source>  (282) 
PubChem BioAssays

>  <Max Phase>  (282) 
0

>  <#Ro5 Violations>  (282) 
0

>  <Molecular Weight>  (282) 
332.4

>  <Ligand Efficiency BEI>  (282) 
nan

>  <Ligand Efficiency LE>  (282) 
nan

>  <Ligand Efficiency LLE>  (282) 
nan

>  <Ligand Efficiency SEI>  (282) 
nan

>  <ALogP>  (282) 
3.6

>  <Assay Organism>  (282) 
nan

>  <Assay Tissue ChEMBL ID>  (282) 
nan

>  <Assay Tissue Name>  (282) 
nan

>  <Assay Cell Type>  (282) 
nan

>  <Assay Subcellular Fraction>  (282) 
nan

>  <Organism Tax ID>  (282) 
9606

>  <BAO Format ID>  (282) 
BAO_0000019

>  <Published Type>  (282) 
nan

>  <Published Relation>  (282) 
nan

>  <Published Value>  (282) 
nan

>  <Published Units>  (282) 
nan

>  <Canonical Smiles>  (282) 
OCCC(NC(=O)c1ccc(cc1)c2ccncc2)c3ccccc3

>  <Data Validity Comment>  (282) 
nan

>  <Document Journal>  (282) 
nan

>  <Document Year>  (282) 
nan

>  <SRC ID>  (282) 
7

>  <UO Units>  (282) 
UO_0000065

>  <Potential Duplicate>  (282) 
False

>  <Class>  (282) 
0

$$$$

     RDKit          2D

 26 29  0  0  0  0  0  0  0  0999 V2000
   -3.6221    4.6871    0.0000 C   0  0  0  0  0  0  0  0  0  0  0  0
   -5.0487    4.2236    0.0000 N   0  0  0  0  0  0  0  0  0  0  0  0
   -6.1634    5.2273    0.0000 C   0  0  0  0  0  0  0  0  0  0  0  0
   -5.3605    2.7564    0.0000 C   0  0  0  0  0  0  0  0  0  0  0  0
   -4.2458    1.7527    0.0000 C   0  0  0  0  0  0  0  0  0  0  0  0
   -4.5577    0.2855    0.0000 C   0  0  0  0  0  0  0  0  0  0  0  0
   -5.9843   -0.1781    0.0000 C   0  0  0  0  0  0  0  0  0  0  0  0
   -7.0990    0.8256    0.0000 C   0  0  0  0  0  0  0  0  0  0  0  0
   -6.7871    2.2929    0.0000 C   0  0  0  0  0  0  0  0  0  0  0  0
   -6.2961   -1.6453    0.0000 N   0  0  0  0  0  0  0  0  0  0  0  0
   -5.1814   -2.6490    0.0000 C   0  0  0  0  0  0  0  0  0  0  0  0
   -5.4933   -4.1162    0.0000 N   0  0  0  0  0  0  0  0  0  0  0  0
   -4.3786   -5.1199    0.0000 C   0  0  0  0  0  0  0  0  0  0  0  0
   -4.6904   -6.5871    0.0000 Cl  0  0  0  0  0  0  0  0  0  0  0  0
   -2.9520   -4.6564    0.0000 C   0  0  0  0  0  0  0  0  0  0  0  0
   -2.6401   -3.1891    0.0000 C   0  0  0  0  0  0  0  0  0  0  0  0
   -3.7548   -2.1855    0.0000 N   0  0  0  0  0  0  0  0  0  0  0  0
   -1.2135   -2.7256    0.0000 C   0  0  0  0  0  0  0  0  0  0  0  0
    0.0000   -3.6073    0.0000 C   0  0  0  0  0  0  0  0  0  0  0  0
    1.2135   -2.7256    0.0000 N   0  0  0  0  0  0  0  0  0  0  0  0
    0.7500   -1.2990    0.0000 C   0  0  0  0  0  0  0  0  0  0  0  0
    1.5000    0.0000    0.0000 N   0  0  0  0  0  0  0  0  0  0  0  0
    0.7500    1.2990    0.0000 C   0  0  0  0  0  0  0  0  0  0  0  0
   -0.7500    1.2990    0.0000 C   0  0  0  0  0  0  0  0  0  0  0  0
   -1.5000    0.0000    0.0000 C   0  0  0  0  0  0  0  0  0  0  0  0
   -0.7500   -1.2990    0.0000 C   0  0  0  0  0  0  0  0  0  0  0  0
  1  2  1  0
  2  3  1  0
  2  4  1  0
  4  5  1  0
  5  6  1  0
  6  7  1  0
  7  8  1  0
  8  9  1  0
  7 10  1  0
 10 11  1  0
 11 12  2  0
 12 13  1  0
 13 14  1  0
 13 15  2  0
 15 16  1  0
 16 17  2  0
 16 18  1  0
 18 19  2  0
 19 20  1  0
 20 21  1  0
 21 22  2  0
 22 23  1  0
 23 24  2  0
 24 25  1  0
 25 26  2  0
  9  4  1  0
 17 11  1  0
 26 18  1  0
 26 21  1  0
M  END
>  <Molecule>  (283) 
CHEMBL1969151

>  <Standard Type>  (283) 
Ki

>  <Standard Relation>  (283) 
=

>  <Standard Value>  (283) 
1584.89

>  <Standard Units>  (283) 
nM

>  <pChEMBL Value>  (283) 
5.8

>  <Comment>  (283) 
active

>  <Compound Key>  (283) 
SID103904199

>  <Assay>  (283) 
CHEMBL1963742

>  <Assay Description>  (283) 
PUBCHEM_BIOASSAY: Navigating the Kinome. (Class of assay: other) Panel member name: JAK3

>  <BAO Format>  (283) 
assay format

>  <Target>  (283) 
CHEMBL2148

>  <Target Pref. Name>  (283) 
Tyrosine-protein kinase JAK3

>  <Target Organism>  (283) 
Homo sapiens

>  <Target Type>  (283) 
SINGLE PROTEIN

>  <Document>  (283) 
CHEMBL1201862

>  <Source>  (283) 
PubChem BioAssays

>  <Max Phase>  (283) 
0

>  <#Ro5 Violations>  (283) 
0

>  <Molecular Weight>  (283) 
370.89

>  <Ligand Efficiency BEI>  (283) 
nan

>  <Ligand Efficiency LE>  (283) 
nan

>  <Ligand Efficiency LLE>  (283) 
nan

>  <Ligand Efficiency SEI>  (283) 
nan

>  <ALogP>  (283) 
3.96

>  <Assay Organism>  (283) 
nan

>  <Assay Tissue ChEMBL ID>  (283) 
nan

>  <Assay Tissue Name>  (283) 
nan

>  <Assay Cell Type>  (283) 
nan

>  <Assay Subcellular Fraction>  (283) 
nan

>  <Organism Tax ID>  (283) 
9606

>  <BAO Format ID>  (283) 
BAO_0000019

>  <Published Type>  (283) 
nan

>  <Published Relation>  (283) 
nan

>  <Published Value>  (283) 
nan

>  <Published Units>  (283) 
nan

>  <Canonical Smiles>  (283) 
CN(C)C1CCC(CC1)Nc2nc(Cl)cc(n2)c3c[nH]c4ncccc34

>  <Data Validity Comment>  (283) 
nan

>  <Document Journal>  (283) 
nan

>  <Document Year>  (283) 
nan

>  <SRC ID>  (283) 
7

>  <UO Units>  (283) 
UO_0000065

>  <Potential Duplicate>  (283) 
False

>  <Class>  (283) 
1

$$$$

     RDKit          2D

 27 30  0  0  0  0  0  0  0  0999 V2000
    3.0000    0.0000    0.0000 N   0  0  0  0  0  0  0  0  0  0  0  0
    1.5000    0.0000    0.0000 C   0  0  0  0  0  0  0  0  0  0  0  0
    0.7500   -1.2990    0.0000 N   0  0  0  0  0  0  0  0  0  0  0  0
   -0.7500   -1.2990    0.0000 C   0  0  0  0  0  0  0  0  0  0  0  0
   -1.5000    0.0000    0.0000 C   0  0  0  0  0  0  0  0  0  0  0  0
   -0.7500    1.2990    0.0000 C   0  0  0  0  0  0  0  0  0  0  0  0
   -1.2135    2.7256    0.0000 S   0  0  0  0  0  0  0  0  0  0  0  0
   -0.0000    3.6073    0.0000 C   0  0  0  0  0  0  0  0  0  0  0  0
    1.2135    2.7256    0.0000 C   0  0  0  0  0  0  0  0  0  0  0  0
    2.6401    3.1891    0.0000 C   0  0  0  0  0  0  0  0  0  0  0  0
    3.7548    2.1855    0.0000 C   0  0  0  0  0  0  0  0  0  0  0  0
    5.1814    2.6490    0.0000 C   0  0  0  0  0  0  0  0  0  0  0  0
    5.4933    4.1162    0.0000 C   0  0  0  0  0  0  0  0  0  0  0  0
    6.9199    4.5797    0.0000 N   0  0  0  0  0  0  0  0  0  0  0  0
    8.0346    3.5760    0.0000 C   0  0  0  0  0  0  0  0  0  0  0  0
    7.7227    2.1088    0.0000 O   0  0  0  0  0  0  0  0  0  0  0  0
    9.4612    4.0396    0.0000 N   0  0  0  0  0  0  0  0  0  0  0  0
   10.5759    3.0359    0.0000 C   0  0  0  0  0  0  0  0  0  0  0  0
   10.2640    1.5686    0.0000 C   0  0  0  0  0  0  0  0  0  0  0  0
   11.3787    0.5649    0.0000 C   0  0  0  0  0  0  0  0  0  0  0  0
   12.8053    1.0285    0.0000 C   0  0  0  0  0  0  0  0  0  0  0  0
   13.1172    2.4957    0.0000 C   0  0  0  0  0  0  0  0  0  0  0  0
   14.5438    2.9592    0.0000 F   0  0  0  0  0  0  0  0  0  0  0  0
   12.0025    3.4994    0.0000 C   0  0  0  0  0  0  0  0  0  0  0  0
    4.3786    5.1199    0.0000 C   0  0  0  0  0  0  0  0  0  0  0  0
    2.9520    4.6564    0.0000 C   0  0  0  0  0  0  0  0  0  0  0  0
    0.7500    1.2990    0.0000 C   0  0  0  0  0  0  0  0  0  0  0  0
  1  2  1  0
  2  3  2  0
  3  4  1  0
  4  5  2  0
  5  6  1  0
  6  7  1  0
  7  8  1  0
  8  9  2  0
  9 10  1  0
 10 11  2  0
 11 12  1  0
 12 13  2  0
 13 14  1  0
 14 15  1  0
 15 16  2  0
 15 17  1  0
 17 18  1  0
 18 19  2  0
 19 20  1  0
 20 21  2  0
 21 22  1  0
 22 23  1  0
 22 24  2  0
 13 25  1  0
 25 26  2  0
  9 27  1  0
 27  2  1  0
 27  6  2  0
 26 10  1  0
 24 18  1  0
M  END
>  <Molecule>  (284) 
CHEMBL231209

>  <Standard Type>  (284) 
Ki

>  <Standard Relation>  (284) 
>

>  <Standard Value>  (284) 
1584.89

>  <Standard Units>  (284) 
nM

>  <pChEMBL Value>  (284) 
nan

>  <Comment>  (284) 
inactive

>  <Compound Key>  (284) 
SID103904347

>  <Assay>  (284) 
CHEMBL1963742

>  <Assay Description>  (284) 
PUBCHEM_BIOASSAY: Navigating the Kinome. (Class of assay: other) Panel member name: JAK3

>  <BAO Format>  (284) 
assay format

>  <Target>  (284) 
CHEMBL2148

>  <Target Pref. Name>  (284) 
Tyrosine-protein kinase JAK3

>  <Target Organism>  (284) 
Homo sapiens

>  <Target Type>  (284) 
SINGLE PROTEIN

>  <Document>  (284) 
CHEMBL1201862

>  <Source>  (284) 
PubChem BioAssays

>  <Max Phase>  (284) 
0

>  <#Ro5 Violations>  (284) 
1

>  <Molecular Weight>  (284) 
378.43

>  <Ligand Efficiency BEI>  (284) 
nan

>  <Ligand Efficiency LE>  (284) 
nan

>  <Ligand Efficiency LLE>  (284) 
nan

>  <Ligand Efficiency SEI>  (284) 
nan

>  <ALogP>  (284) 
5.33

>  <Assay Organism>  (284) 
nan

>  <Assay Tissue ChEMBL ID>  (284) 
nan

>  <Assay Tissue Name>  (284) 
nan

>  <Assay Cell Type>  (284) 
nan

>  <Assay Subcellular Fraction>  (284) 
nan

>  <Organism Tax ID>  (284) 
9606

>  <BAO Format ID>  (284) 
BAO_0000019

>  <Published Type>  (284) 
nan

>  <Published Relation>  (284) 
nan

>  <Published Value>  (284) 
nan

>  <Published Units>  (284) 
nan

>  <Canonical Smiles>  (284) 
Nc1nccc2scc(c3ccc(NC(=O)Nc4cccc(F)c4)cc3)c12

>  <Data Validity Comment>  (284) 
nan

>  <Document Journal>  (284) 
nan

>  <Document Year>  (284) 
nan

>  <SRC ID>  (284) 
7

>  <UO Units>  (284) 
UO_0000065

>  <Potential Duplicate>  (284) 
False

>  <Class>  (284) 
0

$$$$

     RDKit          2D

 22 25  0  0  0  0  0  0  0  0999 V2000
   -5.3605    2.7564    0.0000 C   0  0  0  0  0  0  0  0  0  0  0  0
   -4.2458    1.7527    0.0000 C   0  0  0  0  0  0  0  0  0  0  0  0
   -4.5577    0.2855    0.0000 C   0  0  0  0  0  0  0  0  0  0  0  0
   -5.9843   -0.1781    0.0000 C   0  0  0  0  0  0  0  0  0  0  0  0
   -7.0990    0.8256    0.0000 C   0  0  0  0  0  0  0  0  0  0  0  0
   -6.7871    2.2929    0.0000 C   0  0  0  0  0  0  0  0  0  0  0  0
   -6.2961   -1.6453    0.0000 N   0  0  0  0  0  0  0  0  0  0  0  0
   -5.1814   -2.6490    0.0000 C   0  0  0  0  0  0  0  0  0  0  0  0
   -5.4933   -4.1162    0.0000 N   0  0  0  0  0  0  0  0  0  0  0  0
   -4.3786   -5.1199    0.0000 C   0  0  0  0  0  0  0  0  0  0  0  0
   -2.9520   -4.6564    0.0000 C   0  0  0  0  0  0  0  0  0  0  0  0
   -2.6401   -3.1891    0.0000 C   0  0  0  0  0  0  0  0  0  0  0  0
   -3.7548   -2.1855    0.0000 N   0  0  0  0  0  0  0  0  0  0  0  0
   -1.2135   -2.7256    0.0000 C   0  0  0  0  0  0  0  0  0  0  0  0
    0.0000   -3.6073    0.0000 C   0  0  0  0  0  0  0  0  0  0  0  0
    1.2135   -2.7256    0.0000 N   0  0  0  0  0  0  0  0  0  0  0  0
    0.7500   -1.2990    0.0000 C   0  0  0  0  0  0  0  0  0  0  0  0
    1.5000    0.0000    0.0000 N   0  0  0  0  0  0  0  0  0  0  0  0
    0.7500    1.2990    0.0000 C   0  0  0  0  0  0  0  0  0  0  0  0
   -0.7500    1.2990    0.0000 C   0  0  0  0  0  0  0  0  0  0  0  0
   -1.5000    0.0000    0.0000 C   0  0  0  0  0  0  0  0  0  0  0  0
   -0.7500   -1.2990    0.0000 C   0  0  0  0  0  0  0  0  0  0  0  0
  1  2  1  0
  2  3  1  0
  3  4  1  0
  4  5  1  0
  5  6  1  0
  4  7  1  0
  7  8  1  0
  8  9  2  0
  9 10  1  0
 10 11  2  0
 11 12  1  0
 12 13  2  0
 12 14  1  0
 14 15  2  0
 15 16  1  0
 16 17  1  0
 17 18  2  0
 18 19  1  0
 19 20  2  0
 20 21  1  0
 21 22  2  0
  6  1  1  0
 13  8  1  0
 22 14  1  0
 22 17  1  0
M  END
>  <Molecule>  (285) 
CHEMBL385478

>  <Standard Type>  (285) 
Ki

>  <Standard Relation>  (285) 
=

>  <Standard Value>  (285) 
158.49

>  <Standard Units>  (285) 
nM

>  <pChEMBL Value>  (285) 
6.8

>  <Comment>  (285) 
active

>  <Compound Key>  (285) 
SID103904205

>  <Assay>  (285) 
CHEMBL1963742

>  <Assay Description>  (285) 
PUBCHEM_BIOASSAY: Navigating the Kinome. (Class of assay: other) Panel member name: JAK3

>  <BAO Format>  (285) 
assay format

>  <Target>  (285) 
CHEMBL2148

>  <Target Pref. Name>  (285) 
Tyrosine-protein kinase JAK3

>  <Target Organism>  (285) 
Homo sapiens

>  <Target Type>  (285) 
SINGLE PROTEIN

>  <Document>  (285) 
CHEMBL1201862

>  <Source>  (285) 
PubChem BioAssays

>  <Max Phase>  (285) 
0

>  <#Ro5 Violations>  (285) 
0

>  <Molecular Weight>  (285) 
293.37

>  <Ligand Efficiency BEI>  (285) 
nan

>  <Ligand Efficiency LE>  (285) 
nan

>  <Ligand Efficiency LLE>  (285) 
nan

>  <Ligand Efficiency SEI>  (285) 
nan

>  <ALogP>  (285) 
3.76

>  <Assay Organism>  (285) 
nan

>  <Assay Tissue ChEMBL ID>  (285) 
nan

>  <Assay Tissue Name>  (285) 
nan

>  <Assay Cell Type>  (285) 
nan

>  <Assay Subcellular Fraction>  (285) 
nan

>  <Organism Tax ID>  (285) 
9606

>  <BAO Format ID>  (285) 
BAO_0000019

>  <Published Type>  (285) 
nan

>  <Published Relation>  (285) 
nan

>  <Published Value>  (285) 
nan

>  <Published Units>  (285) 
nan

>  <Canonical Smiles>  (285) 
C1CCC(CC1)Nc2nccc(n2)c3c[nH]c4ncccc34

>  <Data Validity Comment>  (285) 
nan

>  <Document Journal>  (285) 
nan

>  <Document Year>  (285) 
nan

>  <SRC ID>  (285) 
7

>  <UO Units>  (285) 
UO_0000065

>  <Potential Duplicate>  (285) 
False

>  <Class>  (285) 
1

$$$$

     RDKit          2D

 20 22  0  0  0  0  0  0  0  0999 V2000
   -6.7871    2.2929    0.0000 N   0  0  0  0  0  0  0  0  0  0  0  0
   -7.0990    0.8256    0.0000 C   0  0  0  0  0  0  0  0  0  0  0  0
   -5.9843   -0.1781    0.0000 C   0  0  0  0  0  0  0  0  0  0  0  0
   -6.2961   -1.6453    0.0000 N   0  0  0  0  0  0  0  0  0  0  0  0
   -5.1814   -2.6490    0.0000 C   0  0  0  0  0  0  0  0  0  0  0  0
   -3.7548   -2.1855    0.0000 C   0  0  0  0  0  0  0  0  0  0  0  0
   -2.6401   -3.1891    0.0000 C   0  0  0  0  0  0  0  0  0  0  0  0
   -2.9520   -4.6564    0.0000 C   0  0  0  0  0  0  0  0  0  0  0  0
   -4.3786   -5.1199    0.0000 C   0  0  0  0  0  0  0  0  0  0  0  0
   -4.6904   -6.5871    0.0000 Cl  0  0  0  0  0  0  0  0  0  0  0  0
   -5.4933   -4.1162    0.0000 N   0  0  0  0  0  0  0  0  0  0  0  0
   -1.2135   -2.7256    0.0000 C   0  0  0  0  0  0  0  0  0  0  0  0
    0.0000   -3.6073    0.0000 C   0  0  0  0  0  0  0  0  0  0  0  0
    1.2135   -2.7256    0.0000 N   0  0  0  0  0  0  0  0  0  0  0  0
    0.7500   -1.2990    0.0000 C   0  0  0  0  0  0  0  0  0  0  0  0
    1.5000    0.0000    0.0000 N   0  0  0  0  0  0  0  0  0  0  0  0
    0.7500    1.2990    0.0000 C   0  0  0  0  0  0  0  0  0  0  0  0
   -0.7500    1.2990    0.0000 C   0  0  0  0  0  0  0  0  0  0  0  0
   -1.5000    0.0000    0.0000 C   0  0  0  0  0  0  0  0  0  0  0  0
   -0.7500   -1.2990    0.0000 C   0  0  0  0  0  0  0  0  0  0  0  0
  1  2  1  0
  2  3  1  0
  3  4  1  0
  4  5  1  0
  5  6  2  0
  6  7  1  0
  7  8  2  0
  8  9  1  0
  9 10  1  0
  9 11  2  0
  7 12  1  0
 12 13  2  0
 13 14  1  0
 14 15  1  0
 15 16  2  0
 16 17  1  0
 17 18  2  0
 18 19  1  0
 19 20  2  0
 11  5  1  0
 20 12  1  0
 20 15  1  0
M  END
>  <Molecule>  (286) 
CHEMBL1972290

>  <Standard Type>  (286) 
Ki

>  <Standard Relation>  (286) 
=

>  <Standard Value>  (286) 
1000.0

>  <Standard Units>  (286) 
nM

>  <pChEMBL Value>  (286) 
6.0

>  <Comment>  (286) 
active

>  <Compound Key>  (286) 
SID103904221

>  <Assay>  (286) 
CHEMBL1963742

>  <Assay Description>  (286) 
PUBCHEM_BIOASSAY: Navigating the Kinome. (Class of assay: other) Panel member name: JAK3

>  <BAO Format>  (286) 
assay format

>  <Target>  (286) 
CHEMBL2148

>  <Target Pref. Name>  (286) 
Tyrosine-protein kinase JAK3

>  <Target Organism>  (286) 
Homo sapiens

>  <Target Type>  (286) 
SINGLE PROTEIN

>  <Document>  (286) 
CHEMBL1201862

>  <Source>  (286) 
PubChem BioAssays

>  <Max Phase>  (286) 
0

>  <#Ro5 Violations>  (286) 
0

>  <Molecular Weight>  (286) 
287.75

>  <Ligand Efficiency BEI>  (286) 
nan

>  <Ligand Efficiency LE>  (286) 
nan

>  <Ligand Efficiency LLE>  (286) 
nan

>  <Ligand Efficiency SEI>  (286) 
nan

>  <ALogP>  (286) 
2.65

>  <Assay Organism>  (286) 
nan

>  <Assay Tissue ChEMBL ID>  (286) 
nan

>  <Assay Tissue Name>  (286) 
nan

>  <Assay Cell Type>  (286) 
nan

>  <Assay Subcellular Fraction>  (286) 
nan

>  <Organism Tax ID>  (286) 
9606

>  <BAO Format ID>  (286) 
BAO_0000019

>  <Published Type>  (286) 
nan

>  <Published Relation>  (286) 
nan

>  <Published Value>  (286) 
nan

>  <Published Units>  (286) 
nan

>  <Canonical Smiles>  (286) 
NCCNc1cc(cc(Cl)n1)c2c[nH]c3ncccc23

>  <Data Validity Comment>  (286) 
nan

>  <Document Journal>  (286) 
nan

>  <Document Year>  (286) 
nan

>  <SRC ID>  (286) 
7

>  <UO Units>  (286) 
UO_0000065

>  <Potential Duplicate>  (286) 
False

>  <Class>  (286) 
1

$$$$

     RDKit          2D

 28 32  0  0  0  0  0  0  0  0999 V2000
   -2.9520   -4.6564    0.0000 C   0  0  0  0  0  0  0  0  0  0  0  0
   -2.6401   -3.1891    0.0000 C   0  0  0  0  0  0  0  0  0  0  0  0
   -3.7548   -2.1855    0.0000 C   0  0  0  0  0  0  0  0  0  0  0  0
   -1.2135   -2.7256    0.0000 N   0  0  0  0  0  0  0  0  0  0  0  0
   -0.0000   -3.6073    0.0000 N   0  0  0  0  0  0  0  0  0  0  0  0
    1.2135   -2.7256    0.0000 N   0  0  0  0  0  0  0  0  0  0  0  0
    0.7500   -1.2990    0.0000 C   0  0  0  0  0  0  0  0  0  0  0  0
    1.5000    0.0000    0.0000 C   0  0  0  0  0  0  0  0  0  0  0  0
    0.7500    1.2990    0.0000 C   0  0  0  0  0  0  0  0  0  0  0  0
   -0.7500    1.2990    0.0000 C   0  0  0  0  0  0  0  0  0  0  0  0
   -1.5000    0.0000    0.0000 C   0  0  0  0  0  0  0  0  0  0  0  0
   -0.7500   -1.2990    0.0000 C   0  0  0  0  0  0  0  0  0  0  0  0
   -1.5000    2.5981    0.0000 C   0  0  0  0  0  0  0  0  0  0  0  0
   -2.9918    2.7549    0.0000 C   0  0  0  0  0  0  0  0  0  0  0  0
   -3.3037    4.2221    0.0000 N   0  0  0  0  0  0  0  0  0  0  0  0
   -2.0046    4.9721    0.0000 C   0  0  0  0  0  0  0  0  0  0  0  0
   -1.3945    6.3424    0.0000 O   0  0  0  0  0  0  0  0  0  0  0  0
    0.0973    6.1856    0.0000 C   0  0  0  0  0  0  0  0  0  0  0  0
    0.4091    4.7184    0.0000 C   0  0  0  0  0  0  0  0  0  0  0  0
   -0.8899    3.9684    0.0000 N   0  0  0  0  0  0  0  0  0  0  0  0
   -3.9955    1.6402    0.0000 C   0  0  0  0  0  0  0  0  0  0  0  0
   -3.5320    0.2136    0.0000 C   0  0  0  0  0  0  0  0  0  0  0  0
   -4.5356   -0.9012    0.0000 C   0  0  0  0  0  0  0  0  0  0  0  0
   -6.0029   -0.5893    0.0000 C   0  0  0  0  0  0  0  0  0  0  0  0
   -7.0066   -1.7040    0.0000 F   0  0  0  0  0  0  0  0  0  0  0  0
   -6.4664    0.8373    0.0000 C   0  0  0  0  0  0  0  0  0  0  0  0
   -5.4627    1.9520    0.0000 C   0  0  0  0  0  0  0  0  0  0  0  0
   -5.9262    3.3786    0.0000 F   0  0  0  0  0  0  0  0  0  0  0  0
  1  2  1  0
  2  3  1  0
  2  4  1  0
  4  5  1  0
  5  6  2  0
  6  7  1  0
  7  8  2  0
  8  9  1  0
  9 10  2  0
 10 11  1  0
 11 12  2  0
 10 13  1  0
 13 14  2  0
 14 15  1  0
 15 16  2  0
 16 17  1  0
 17 18  1  0
 18 19  2  0
 19 20  1  0
 14 21  1  0
 21 22  2  0
 22 23  1  0
 23 24  2  0
 24 25  1  0
 24 26  1  0
 26 27  2  0
 27 28  1  0
 12  4  1  0
 12  7  1  0
 20 13  1  0
 20 16  1  0
 27 21  1  0
M  END
>  <Molecule>  (287) 
CHEMBL1969126

>  <Standard Type>  (287) 
Ki

>  <Standard Relation>  (287) 
>

>  <Standard Value>  (287) 
1584.89

>  <Standard Units>  (287) 
nM

>  <pChEMBL Value>  (287) 
nan

>  <Comment>  (287) 
inactive

>  <Compound Key>  (287) 
SID103905066

>  <Assay>  (287) 
CHEMBL1963742

>  <Assay Description>  (287) 
PUBCHEM_BIOASSAY: Navigating the Kinome. (Class of assay: other) Panel member name: JAK3

>  <BAO Format>  (287) 
assay format

>  <Target>  (287) 
CHEMBL2148

>  <Target Pref. Name>  (287) 
Tyrosine-protein kinase JAK3

>  <Target Organism>  (287) 
Homo sapiens

>  <Target Type>  (287) 
SINGLE PROTEIN

>  <Document>  (287) 
CHEMBL1201862

>  <Source>  (287) 
PubChem BioAssays

>  <Max Phase>  (287) 
0

>  <#Ro5 Violations>  (287) 
0

>  <Molecular Weight>  (287) 
379.37

>  <Ligand Efficiency BEI>  (287) 
nan

>  <Ligand Efficiency LE>  (287) 
nan

>  <Ligand Efficiency LLE>  (287) 
nan

>  <Ligand Efficiency SEI>  (287) 
nan

>  <ALogP>  (287) 
4.87

>  <Assay Organism>  (287) 
nan

>  <Assay Tissue ChEMBL ID>  (287) 
nan

>  <Assay Tissue Name>  (287) 
nan

>  <Assay Cell Type>  (287) 
nan

>  <Assay Subcellular Fraction>  (287) 
nan

>  <Organism Tax ID>  (287) 
9606

>  <BAO Format ID>  (287) 
BAO_0000019

>  <Published Type>  (287) 
nan

>  <Published Relation>  (287) 
nan

>  <Published Value>  (287) 
nan

>  <Published Units>  (287) 
nan

>  <Canonical Smiles>  (287) 
CC(C)n1nnc2ccc(cc12)c3c(nc4occn34)c5ccc(F)cc5F

>  <Data Validity Comment>  (287) 
nan

>  <Document Journal>  (287) 
nan

>  <Document Year>  (287) 
nan

>  <SRC ID>  (287) 
7

>  <UO Units>  (287) 
UO_0000065

>  <Potential Duplicate>  (287) 
False

>  <Class>  (287) 
0

$$$$

     RDKit          2D

 28 30  0  0  0  0  0  0  0  0999 V2000
    3.7500   -1.2990    0.0000 C   0  0  0  0  0  0  0  0  0  0  0  0
    3.0000    0.0000    0.0000 O   0  0  0  0  0  0  0  0  0  0  0  0
    1.5000    0.0000    0.0000 C   0  0  0  0  0  0  0  0  0  0  0  0
    0.7500   -1.2990    0.0000 C   0  0  0  0  0  0  0  0  0  0  0  0
   -0.7500   -1.2990    0.0000 C   0  0  0  0  0  0  0  0  0  0  0  0
   -1.5000    0.0000    0.0000 C   0  0  0  0  0  0  0  0  0  0  0  0
   -0.7500    1.2990    0.0000 C   0  0  0  0  0  0  0  0  0  0  0  0
    0.7500    1.2990    0.0000 C   0  0  0  0  0  0  0  0  0  0  0  0
   -1.5000    2.5981    0.0000 C   0  0  0  0  0  0  0  0  0  0  0  0
   -0.7500    3.8971    0.0000 C   0  0  0  0  0  0  0  0  0  0  0  0
   -3.0000    2.5981    0.0000 N   0  0  0  0  0  0  0  0  0  0  0  0
   -3.7500    3.8971    0.0000 C   0  0  0  0  0  0  0  0  0  0  0  0
   -3.0000    5.1962    0.0000 O   0  0  0  0  0  0  0  0  0  0  0  0
   -5.2500    3.8971    0.0000 C   0  0  0  0  0  0  0  0  0  0  0  0
   -6.0000    5.1962    0.0000 C   0  0  0  0  0  0  0  0  0  0  0  0
   -7.5000    5.1962    0.0000 C   0  0  0  0  0  0  0  0  0  0  0  0
   -8.2500    3.8971    0.0000 C   0  0  0  0  0  0  0  0  0  0  0  0
   -7.5000    2.5981    0.0000 C   0  0  0  0  0  0  0  0  0  0  0  0
   -6.0000    2.5981    0.0000 C   0  0  0  0  0  0  0  0  0  0  0  0
   -5.2500    1.2990    0.0000 O   0  0  0  0  0  0  0  0  0  0  0  0
   -6.0000    0.0000    0.0000 C   0  0  0  0  0  0  0  0  0  0  0  0
   -9.7500    3.8971    0.0000 C   0  0  0  0  0  0  0  0  0  0  0  0
  -10.5000    5.1962    0.0000 C   0  0  0  0  0  0  0  0  0  0  0  0
  -12.0000    5.1962    0.0000 C   0  0  0  0  0  0  0  0  0  0  0  0
  -12.7500    3.8971    0.0000 N   0  0  0  0  0  0  0  0  0  0  0  0
  -12.0000    2.5981    0.0000 C   0  0  0  0  0  0  0  0  0  0  0  0
  -10.5000    2.5981    0.0000 C   0  0  0  0  0  0  0  0  0  0  0  0
   -9.7500    1.2990    0.0000 F   0  0  0  0  0  0  0  0  0  0  0  0
  1  2  1  0
  2  3  1  0
  3  4  2  0
  4  5  1  0
  5  6  2  0
  6  7  1  0
  7  8  2  0
  7  9  1  0
  9 10  1  0
  9 11  1  0
 11 12  1  0
 12 13  2  0
 12 14  1  0
 14 15  2  0
 15 16  1  0
 16 17  2  0
 17 18  1  0
 18 19  2  0
 19 20  1  0
 20 21  1  0
 17 22  1  0
 22 23  2  0
 23 24  1  0
 24 25  2  0
 25 26  1  0
 26 27  2  0
 27 28  1  0
  8  3  1  0
 19 14  1  0
 27 22  1  0
M  END
>  <Molecule>  (288) 
CHEMBL1991188

>  <Standard Type>  (288) 
Ki

>  <Standard Relation>  (288) 
>

>  <Standard Value>  (288) 
1584.89

>  <Standard Units>  (288) 
nM

>  <pChEMBL Value>  (288) 
nan

>  <Comment>  (288) 
inactive

>  <Compound Key>  (288) 
SID103905120

>  <Assay>  (288) 
CHEMBL1963742

>  <Assay Description>  (288) 
PUBCHEM_BIOASSAY: Navigating the Kinome. (Class of assay: other) Panel member name: JAK3

>  <BAO Format>  (288) 
assay format

>  <Target>  (288) 
CHEMBL2148

>  <Target Pref. Name>  (288) 
Tyrosine-protein kinase JAK3

>  <Target Organism>  (288) 
Homo sapiens

>  <Target Type>  (288) 
SINGLE PROTEIN

>  <Document>  (288) 
CHEMBL1201862

>  <Source>  (288) 
PubChem BioAssays

>  <Max Phase>  (288) 
0

>  <#Ro5 Violations>  (288) 
0

>  <Molecular Weight>  (288) 
380.42

>  <Ligand Efficiency BEI>  (288) 
nan

>  <Ligand Efficiency LE>  (288) 
nan

>  <Ligand Efficiency LLE>  (288) 
nan

>  <Ligand Efficiency SEI>  (288) 
nan

>  <ALogP>  (288) 
4.4

>  <Assay Organism>  (288) 
nan

>  <Assay Tissue ChEMBL ID>  (288) 
nan

>  <Assay Tissue Name>  (288) 
nan

>  <Assay Cell Type>  (288) 
nan

>  <Assay Subcellular Fraction>  (288) 
nan

>  <Organism Tax ID>  (288) 
9606

>  <BAO Format ID>  (288) 
BAO_0000019

>  <Published Type>  (288) 
nan

>  <Published Relation>  (288) 
nan

>  <Published Value>  (288) 
nan

>  <Published Units>  (288) 
nan

>  <Canonical Smiles>  (288) 
COc1cccc(c1)C(C)NC(=O)c2ccc(cc2OC)c3ccncc3F

>  <Data Validity Comment>  (288) 
nan

>  <Document Journal>  (288) 
nan

>  <Document Year>  (288) 
nan

>  <SRC ID>  (288) 
7

>  <UO Units>  (288) 
UO_0000065

>  <Potential Duplicate>  (288) 
False

>  <Class>  (288) 
0

$$$$

     RDKit          2D

 30 34  0  0  0  0  0  0  0  0999 V2000
    1.5000  -10.3923    0.0000 C   0  0  0  0  0  0  0  0  0  0  0  0
    0.7500   -9.0933    0.0000 C   0  0  0  0  0  0  0  0  0  0  0  0
   -0.7500   -9.0933    0.0000 C   0  0  0  0  0  0  0  0  0  0  0  0
   -1.5000   -7.7942    0.0000 C   0  0  0  0  0  0  0  0  0  0  0  0
   -3.0000   -7.7942    0.0000 C   0  0  0  0  0  0  0  0  0  0  0  0
   -0.7500   -6.4952    0.0000 C   0  0  0  0  0  0  0  0  0  0  0  0
    0.7500   -6.4952    0.0000 C   0  0  0  0  0  0  0  0  0  0  0  0
    1.5000   -5.1962    0.0000 N   0  0  0  0  0  0  0  0  0  0  0  0
    0.7500   -3.8971    0.0000 C   0  0  0  0  0  0  0  0  0  0  0  0
   -0.7500   -3.8971    0.0000 O   0  0  0  0  0  0  0  0  0  0  0  0
    1.5000   -2.5981    0.0000 N   0  0  0  0  0  0  0  0  0  0  0  0
    0.7500   -1.2990    0.0000 C   0  0  0  0  0  0  0  0  0  0  0  0
    1.5000    0.0000    0.0000 C   0  0  0  0  0  0  0  0  0  0  0  0
    0.7500    1.2990    0.0000 C   0  0  0  0  0  0  0  0  0  0  0  0
   -0.7500    1.2990    0.0000 C   0  0  0  0  0  0  0  0  0  0  0  0
   -1.5000    0.0000    0.0000 C   0  0  0  0  0  0  0  0  0  0  0  0
   -3.0000    0.0000    0.0000 C   0  0  0  0  0  0  0  0  0  0  0  0
   -3.7500    1.2990    0.0000 C   0  0  0  0  0  0  0  0  0  0  0  0
   -3.0000    2.5981    0.0000 C   0  0  0  0  0  0  0  0  0  0  0  0
   -3.4635    4.0247    0.0000 S   0  0  0  0  0  0  0  0  0  0  0  0
   -2.2500    4.9063    0.0000 C   0  0  0  0  0  0  0  0  0  0  0  0
   -2.0932    6.3981    0.0000 N   0  0  0  0  0  0  0  0  0  0  0  0
   -0.7229    7.0082    0.0000 C   0  0  0  0  0  0  0  0  0  0  0  0
    0.4906    6.1265    0.0000 N   0  0  0  0  0  0  0  0  0  0  0  0
    0.3338    4.6348    0.0000 C   0  0  0  0  0  0  0  0  0  0  0  0
    1.5474    3.7531    0.0000 N   0  0  0  0  0  0  0  0  0  0  0  0
   -1.0365    4.0247    0.0000 C   0  0  0  0  0  0  0  0  0  0  0  0
   -1.5000    2.5981    0.0000 C   0  0  0  0  0  0  0  0  0  0  0  0
   -0.7500   -1.2990    0.0000 C   0  0  0  0  0  0  0  0  0  0  0  0
    1.5000   -7.7942    0.0000 C   0  0  0  0  0  0  0  0  0  0  0  0
  1  2  1  0
  2  3  2  0
  3  4  1  0
  4  5  1  0
  4  6  2  0
  6  7  1  0
  7  8  1  0
  8  9  1  0
  9 10  2  0
  9 11  1  0
 11 12  1  0
 12 13  2  0
 13 14  1  0
 14 15  2  0
 15 16  1  0
 16 17  1  0
 17 18  1  0
 18 19  1  0
 19 20  1  0
 20 21  1  0
 21 22  2  0
 22 23  1  0
 23 24  2  0
 24 25  1  0
 25 26  1  0
 25 27  2  0
 27 28  1  0
 16 29  2  0
  7 30  2  0
 30  2  1  0
 29 12  1  0
 28 15  1  0
 28 19  2  0
 27 21  1  0
M  END
>  <Molecule>  (289) 
CHEMBL1964687

>  <Standard Type>  (289) 
Ki

>  <Standard Relation>  (289) 
>

>  <Standard Value>  (289) 
1584.89

>  <Standard Units>  (289) 
nM

>  <pChEMBL Value>  (289) 
nan

>  <Comment>  (289) 
inactive

>  <Compound Key>  (289) 
SID103904330

>  <Assay>  (289) 
CHEMBL1963742

>  <Assay Description>  (289) 
PUBCHEM_BIOASSAY: Navigating the Kinome. (Class of assay: other) Panel member name: JAK3

>  <BAO Format>  (289) 
assay format

>  <Target>  (289) 
CHEMBL2148

>  <Target Pref. Name>  (289) 
Tyrosine-protein kinase JAK3

>  <Target Organism>  (289) 
Homo sapiens

>  <Target Type>  (289) 
SINGLE PROTEIN

>  <Document>  (289) 
CHEMBL1201862

>  <Source>  (289) 
PubChem BioAssays

>  <Max Phase>  (289) 
0

>  <#Ro5 Violations>  (289) 
1

>  <Molecular Weight>  (289) 
415.52

>  <Ligand Efficiency BEI>  (289) 
nan

>  <Ligand Efficiency LE>  (289) 
nan

>  <Ligand Efficiency LLE>  (289) 
nan

>  <Ligand Efficiency SEI>  (289) 
nan

>  <ALogP>  (289) 
5.3

>  <Assay Organism>  (289) 
nan

>  <Assay Tissue ChEMBL ID>  (289) 
nan

>  <Assay Tissue Name>  (289) 
nan

>  <Assay Cell Type>  (289) 
nan

>  <Assay Subcellular Fraction>  (289) 
nan

>  <Organism Tax ID>  (289) 
9606

>  <BAO Format ID>  (289) 
BAO_0000019

>  <Published Type>  (289) 
nan

>  <Published Relation>  (289) 
nan

>  <Published Value>  (289) 
nan

>  <Published Units>  (289) 
nan

>  <Canonical Smiles>  (289) 
Cc1cc(C)cc(NC(=O)Nc2ccc3c(CCc4sc5ncnc(N)c5c34)c2)c1

>  <Data Validity Comment>  (289) 
nan

>  <Document Journal>  (289) 
nan

>  <Document Year>  (289) 
nan

>  <SRC ID>  (289) 
7

>  <UO Units>  (289) 
UO_0000065

>  <Potential Duplicate>  (289) 
False

>  <Class>  (289) 
0

$$$$

     RDKit          2D

 25 28  0  0  0  0  0  0  0  0999 V2000
    5.2500   -9.0933    0.0000 C   0  0  0  0  0  0  0  0  0  0  0  0
    6.0000   -7.7942    0.0000 O   0  0  0  0  0  0  0  0  0  0  0  0
    5.2500   -6.4952    0.0000 C   0  0  0  0  0  0  0  0  0  0  0  0
    3.7500   -6.4952    0.0000 C   0  0  0  0  0  0  0  0  0  0  0  0
    3.0000   -5.1962    0.0000 C   0  0  0  0  0  0  0  0  0  0  0  0
    3.7500   -3.8971    0.0000 C   0  0  0  0  0  0  0  0  0  0  0  0
    5.2500   -3.8971    0.0000 C   0  0  0  0  0  0  0  0  0  0  0  0
    6.0000   -5.1962    0.0000 C   0  0  0  0  0  0  0  0  0  0  0  0
    3.0000   -2.5981    0.0000 C   0  0  0  0  0  0  0  0  0  0  0  0
    3.7500   -1.2990    0.0000 O   0  0  0  0  0  0  0  0  0  0  0  0
    1.5000   -2.5981    0.0000 N   0  0  0  0  0  0  0  0  0  0  0  0
    0.7500   -1.2990    0.0000 C   0  0  0  0  0  0  0  0  0  0  0  0
    1.5000    0.0000    0.0000 C   0  0  0  0  0  0  0  0  0  0  0  0
    0.7500    1.2990    0.0000 C   0  0  0  0  0  0  0  0  0  0  0  0
   -0.7500    1.2990    0.0000 C   0  0  0  0  0  0  0  0  0  0  0  0
   -1.5000    0.0000    0.0000 C   0  0  0  0  0  0  0  0  0  0  0  0
   -0.7500   -1.2990    0.0000 C   0  0  0  0  0  0  0  0  0  0  0  0
   -1.5000   -2.5981    0.0000 S   0  0  0  0  0  0  0  0  0  0  0  0
   -0.7500   -3.8971    0.0000 C   0  0  0  0  0  0  0  0  0  0  0  0
   -1.5000   -5.1962    0.0000 C   0  0  0  0  0  0  0  0  0  0  0  0
   -3.0000   -5.1962    0.0000 Cl  0  0  0  0  0  0  0  0  0  0  0  0
   -0.7500   -6.4952    0.0000 C   0  0  0  0  0  0  0  0  0  0  0  0
    0.7500   -6.4952    0.0000 N   0  0  0  0  0  0  0  0  0  0  0  0
    1.5000   -5.1962    0.0000 C   0  0  0  0  0  0  0  0  0  0  0  0
    0.7500   -3.8971    0.0000 C   0  0  0  0  0  0  0  0  0  0  0  0
  1  2  1  0
  2  3  1  0
  3  4  2  0
  4  5  1  0
  5  6  2  0
  6  7  1  0
  7  8  2  0
  6  9  1  0
  9 10  2  0
  9 11  1  0
 11 12  1  0
 12 13  2  0
 13 14  1  0
 14 15  2  0
 15 16  1  0
 16 17  2  0
 17 18  1  0
 18 19  1  0
 19 20  2  0
 20 21  1  0
 20 22  1  0
 22 23  2  0
 23 24  1  0
 24 25  2  0
  8  3  1  0
 25 11  1  0
 17 12  1  0
 25 19  1  0
M  END
>  <Molecule>  (290) 
CHEMBL1988537

>  <Standard Type>  (290) 
Ki

>  <Standard Relation>  (290) 
>

>  <Standard Value>  (290) 
1584.89

>  <Standard Units>  (290) 
nM

>  <pChEMBL Value>  (290) 
nan

>  <Comment>  (290) 
inactive

>  <Compound Key>  (290) 
SID103905590

>  <Assay>  (290) 
CHEMBL1963742

>  <Assay Description>  (290) 
PUBCHEM_BIOASSAY: Navigating the Kinome. (Class of assay: other) Panel member name: JAK3

>  <BAO Format>  (290) 
assay format

>  <Target>  (290) 
CHEMBL2148

>  <Target Pref. Name>  (290) 
Tyrosine-protein kinase JAK3

>  <Target Organism>  (290) 
Homo sapiens

>  <Target Type>  (290) 
SINGLE PROTEIN

>  <Document>  (290) 
CHEMBL1201862

>  <Source>  (290) 
PubChem BioAssays

>  <Max Phase>  (290) 
0

>  <#Ro5 Violations>  (290) 
1

>  <Molecular Weight>  (290) 
368.85

>  <Ligand Efficiency BEI>  (290) 
nan

>  <Ligand Efficiency LE>  (290) 
nan

>  <Ligand Efficiency LLE>  (290) 
nan

>  <Ligand Efficiency SEI>  (290) 
nan

>  <ALogP>  (290) 
5.19

>  <Assay Organism>  (290) 
nan

>  <Assay Tissue ChEMBL ID>  (290) 
nan

>  <Assay Tissue Name>  (290) 
nan

>  <Assay Cell Type>  (290) 
nan

>  <Assay Subcellular Fraction>  (290) 
nan

>  <Organism Tax ID>  (290) 
9606

>  <BAO Format ID>  (290) 
BAO_0000019

>  <Published Type>  (290) 
nan

>  <Published Relation>  (290) 
nan

>  <Published Value>  (290) 
nan

>  <Published Units>  (290) 
nan

>  <Canonical Smiles>  (290) 
COc1ccc(cc1)C(=O)N2c3ccccc3Sc4c(Cl)cncc24

>  <Data Validity Comment>  (290) 
nan

>  <Document Journal>  (290) 
nan

>  <Document Year>  (290) 
nan

>  <SRC ID>  (290) 
7

>  <UO Units>  (290) 
UO_0000065

>  <Potential Duplicate>  (290) 
False

>  <Class>  (290) 
0

$$$$

     RDKit          2D

 34 37  0  0  0  0  0  0  0  0999 V2000
   -0.7500   -6.4952    0.0000 C   0  0  0  0  0  0  0  0  0  0  0  0
    0.7500   -6.4952    0.0000 O   0  0  0  0  0  0  0  0  0  0  0  0
    1.5000   -5.1962    0.0000 C   0  0  0  0  0  0  0  0  0  0  0  0
    0.7500   -3.8971    0.0000 C   0  0  0  0  0  0  0  0  0  0  0  0
    1.5000   -2.5981    0.0000 C   0  0  0  0  0  0  0  0  0  0  0  0
    3.0000   -2.5981    0.0000 C   0  0  0  0  0  0  0  0  0  0  0  0
    3.7500   -3.8971    0.0000 C   0  0  0  0  0  0  0  0  0  0  0  0
    3.0000   -5.1962    0.0000 C   0  0  0  0  0  0  0  0  0  0  0  0
    3.7500   -6.4952    0.0000 O   0  0  0  0  0  0  0  0  0  0  0  0
    0.7500   -1.2990    0.0000 C   0  0  0  0  0  0  0  0  0  0  0  0
    1.5000    0.0000    0.0000 C   0  0  0  0  0  0  0  0  0  0  0  0
    0.7500    1.2990    0.0000 C   0  0  0  0  0  0  0  0  0  0  0  0
   -0.7500    1.2990    0.0000 C   0  0  0  0  0  0  0  0  0  0  0  0
   -1.2980    2.6953    0.0000 C   0  0  0  0  0  0  0  0  0  0  0  0
   -0.2778    3.7949    0.0000 O   0  0  0  0  0  0  0  0  0  0  0  0
   -2.7314    3.1375    0.0000 N   0  0  0  0  0  0  0  0  0  0  0  0
   -3.9707    2.2925    0.0000 C   0  0  0  0  0  0  0  0  0  0  0  0
   -5.2101    3.1375    0.0000 C   0  0  0  0  0  0  0  0  0  0  0  0
   -6.5615    2.4867    0.0000 C   0  0  0  0  0  0  0  0  0  0  0  0
   -6.6736    0.9909    0.0000 C   0  0  0  0  0  0  0  0  0  0  0  0
   -5.4343    0.1459    0.0000 C   0  0  0  0  0  0  0  0  0  0  0  0
   -4.0828    0.7967    0.0000 C   0  0  0  0  0  0  0  0  0  0  0  0
   -2.9832   -0.2236    0.0000 N   0  0  0  0  0  0  0  0  0  0  0  0
   -1.5000    0.0000    0.0000 C   0  0  0  0  0  0  0  0  0  0  0  0
   -0.7500   -1.2990    0.0000 C   0  0  0  0  0  0  0  0  0  0  0  0
   -7.8009    3.3316    0.0000 C   0  0  0  0  0  0  0  0  0  0  0  0
   -9.1524    2.6808    0.0000 O   0  0  0  0  0  0  0  0  0  0  0  0
   -7.6888    4.8274    0.0000 N   0  0  0  0  0  0  0  0  0  0  0  0
   -8.9282    5.6724    0.0000 C   0  0  0  0  0  0  0  0  0  0  0  0
   -8.8161    7.1682    0.0000 C   0  0  0  0  0  0  0  0  0  0  0  0
  -10.0554    8.0132    0.0000 C   0  0  0  0  0  0  0  0  0  0  0  0
   -9.9433    9.5090    0.0000 N   0  0  0  0  0  0  0  0  0  0  0  0
  -11.1827   10.3540    0.0000 C   0  0  0  0  0  0  0  0  0  0  0  0
   -8.5919   10.1598    0.0000 C   0  0  0  0  0  0  0  0  0  0  0  0
  1  2  1  0
  2  3  1  0
  3  4  2  0
  4  5  1  0
  5  6  2  0
  6  7  1  0
  7  8  2  0
  8  9  1  0
  5 10  1  0
 10 11  2  0
 11 12  1  0
 12 13  2  0
 13 14  1  0
 14 15  2  0
 14 16  1  0
 16 17  1  0
 17 18  2  0
 18 19  1  0
 19 20  2  0
 20 21  1  0
 21 22  2  0
 22 23  1  0
 23 24  1  0
 24 25  2  0
 19 26  1  0
 26 27  2  0
 26 28  1  0
 28 29  1  0
 29 30  1  0
 30 31  1  0
 31 32  1  0
 32 33  1  0
 32 34  1  0
  8  3  1  0
 25 10  1  0
 24 13  1  0
 22 17  1  0
M  END
>  <Molecule>  (291) 
CHEMBL1996702

>  <Standard Type>  (291) 
Ki

>  <Standard Relation>  (291) 
=

>  <Standard Value>  (291) 
3981.07

>  <Standard Units>  (291) 
nM

>  <pChEMBL Value>  (291) 
5.4

>  <Comment>  (291) 
active

>  <Compound Key>  (291) 
SID103904706

>  <Assay>  (291) 
CHEMBL1963742

>  <Assay Description>  (291) 
PUBCHEM_BIOASSAY: Navigating the Kinome. (Class of assay: other) Panel member name: JAK3

>  <BAO Format>  (291) 
assay format

>  <Target>  (291) 
CHEMBL2148

>  <Target Pref. Name>  (291) 
Tyrosine-protein kinase JAK3

>  <Target Organism>  (291) 
Homo sapiens

>  <Target Type>  (291) 
SINGLE PROTEIN

>  <Document>  (291) 
CHEMBL1201862

>  <Source>  (291) 
PubChem BioAssays

>  <Max Phase>  (291) 
0

>  <#Ro5 Violations>  (291) 
0

>  <Molecular Weight>  (291) 
460.53

>  <Ligand Efficiency BEI>  (291) 
nan

>  <Ligand Efficiency LE>  (291) 
nan

>  <Ligand Efficiency LLE>  (291) 
nan

>  <Ligand Efficiency SEI>  (291) 
nan

>  <ALogP>  (291) 
4.06

>  <Assay Organism>  (291) 
nan

>  <Assay Tissue ChEMBL ID>  (291) 
nan

>  <Assay Tissue Name>  (291) 
nan

>  <Assay Cell Type>  (291) 
nan

>  <Assay Subcellular Fraction>  (291) 
nan

>  <Organism Tax ID>  (291) 
9606

>  <BAO Format ID>  (291) 
BAO_0000019

>  <Published Type>  (291) 
nan

>  <Published Relation>  (291) 
nan

>  <Published Value>  (291) 
nan

>  <Published Units>  (291) 
nan

>  <Canonical Smiles>  (291) 
COc1cc(ccc1O)c2ccc3C(=O)Nc4cc(ccc4Nc3c2)C(=O)NCCCN(C)C

>  <Data Validity Comment>  (291) 
nan

>  <Document Journal>  (291) 
nan

>  <Document Year>  (291) 
nan

>  <SRC ID>  (291) 
7

>  <UO Units>  (291) 
UO_0000065

>  <Potential Duplicate>  (291) 
False

>  <Class>  (291) 
1

$$$$

     RDKit          2D

 19 21  0  0  0  0  0  0  0  0999 V2000
    1.6839   -7.2010    0.0000 C   0  0  0  0  0  0  0  0  0  0  0  0
    1.5271   -5.7092    0.0000 C   0  0  0  0  0  0  0  0  0  0  0  0
    2.7406   -4.8275    0.0000 C   0  0  0  0  0  0  0  0  0  0  0  0
    4.1110   -5.4376    0.0000 C   0  0  0  0  0  0  0  0  0  0  0  0
    5.3245   -4.5559    0.0000 O   0  0  0  0  0  0  0  0  0  0  0  0
    2.5838   -3.3357    0.0000 C   0  0  0  0  0  0  0  0  0  0  0  0
    3.7974   -2.4540    0.0000 O   0  0  0  0  0  0  0  0  0  0  0  0
    1.2135   -2.7256    0.0000 N   0  0  0  0  0  0  0  0  0  0  0  0
    0.7500   -1.2990    0.0000 C   0  0  0  0  0  0  0  0  0  0  0  0
    1.5000    0.0000    0.0000 C   0  0  0  0  0  0  0  0  0  0  0  0
    0.7500    1.2990    0.0000 C   0  0  0  0  0  0  0  0  0  0  0  0
   -0.7500    1.2990    0.0000 C   0  0  0  0  0  0  0  0  0  0  0  0
   -1.5000    0.0000    0.0000 C   0  0  0  0  0  0  0  0  0  0  0  0
   -0.7500   -1.2990    0.0000 C   0  0  0  0  0  0  0  0  0  0  0  0
   -1.2135   -2.7256    0.0000 N   0  0  0  0  0  0  0  0  0  0  0  0
    0.0000   -3.6073    0.0000 C   0  0  0  0  0  0  0  0  0  0  0  0
    0.1568   -5.0991    0.0000 C   0  0  0  0  0  0  0  0  0  0  0  0
   -1.0567   -5.9808    0.0000 C   0  0  0  0  0  0  0  0  0  0  0  0
   -2.2703   -6.8624    0.0000 N   0  0  0  0  0  0  0  0  0  0  0  0
  1  2  1  0
  2  3  1  0
  3  4  1  0
  4  5  2  0
  3  6  2  0
  6  7  1  0
  6  8  1  0
  8  9  1  0
  9 10  2  0
 10 11  1  0
 11 12  2  0
 12 13  1  0
 13 14  2  0
 14 15  1  0
 15 16  2  0
 16 17  1  0
 17 18  1  0
 18 19  3  0
 17  2  2  0
 16  8  1  0
 14  9  1  0
M  END
>  <Molecule>  (292) 
CHEMBL1989856

>  <Standard Type>  (292) 
Ki

>  <Standard Relation>  (292) 
=

>  <Standard Value>  (292) 
100.0

>  <Standard Units>  (292) 
nM

>  <pChEMBL Value>  (292) 
7.0

>  <Comment>  (292) 
active

>  <Compound Key>  (292) 
SID103905300

>  <Assay>  (292) 
CHEMBL1963742

>  <Assay Description>  (292) 
PUBCHEM_BIOASSAY: Navigating the Kinome. (Class of assay: other) Panel member name: JAK3

>  <BAO Format>  (292) 
assay format

>  <Target>  (292) 
CHEMBL2148

>  <Target Pref. Name>  (292) 
Tyrosine-protein kinase JAK3

>  <Target Organism>  (292) 
Homo sapiens

>  <Target Type>  (292) 
SINGLE PROTEIN

>  <Document>  (292) 
CHEMBL1201862

>  <Source>  (292) 
PubChem BioAssays

>  <Max Phase>  (292) 
0

>  <#Ro5 Violations>  (292) 
0

>  <Molecular Weight>  (292) 
251.25

>  <Ligand Efficiency BEI>  (292) 
nan

>  <Ligand Efficiency LE>  (292) 
nan

>  <Ligand Efficiency LLE>  (292) 
nan

>  <Ligand Efficiency SEI>  (292) 
nan

>  <ALogP>  (292) 
2.19

>  <Assay Organism>  (292) 
nan

>  <Assay Tissue ChEMBL ID>  (292) 
nan

>  <Assay Tissue Name>  (292) 
nan

>  <Assay Cell Type>  (292) 
nan

>  <Assay Subcellular Fraction>  (292) 
nan

>  <Organism Tax ID>  (292) 
9606

>  <BAO Format ID>  (292) 
BAO_0000019

>  <Published Type>  (292) 
nan

>  <Published Relation>  (292) 
nan

>  <Published Value>  (292) 
nan

>  <Published Units>  (292) 
nan

>  <Canonical Smiles>  (292) 
Cc1c(C=O)c(O)n2c3ccccc3nc2c1C#N

>  <Data Validity Comment>  (292) 
nan

>  <Document Journal>  (292) 
nan

>  <Document Year>  (292) 
nan

>  <SRC ID>  (292) 
7

>  <UO Units>  (292) 
UO_0000065

>  <Potential Duplicate>  (292) 
False

>  <Class>  (292) 
1

$$$$

     RDKit          2D

 23 24  0  0  0  0  0  0  0  0999 V2000
   -4.5960   -3.5353    0.0000 C   0  0  0  0  0  0  0  0  0  0  0  0
   -3.2970   -4.2853    0.0000 C   0  0  0  0  0  0  0  0  0  0  0  0
   -1.9979   -3.5353    0.0000 N   0  0  0  0  0  0  0  0  0  0  0  0
   -0.6989   -4.2853    0.0000 C   0  0  0  0  0  0  0  0  0  0  0  0
    0.7500   -3.8971    0.0000 C   0  0  0  0  0  0  0  0  0  0  0  0
    1.5000   -2.5981    0.0000 N   0  0  0  0  0  0  0  0  0  0  0  0
    3.0000   -2.5981    0.0000 C   0  0  0  0  0  0  0  0  0  0  0  0
    3.7500   -1.2990    0.0000 O   0  0  0  0  0  0  0  0  0  0  0  0
    3.7500   -3.8971    0.0000 C   0  0  0  0  0  0  0  0  0  0  0  0
    0.7500   -1.2990    0.0000 C   0  0  0  0  0  0  0  0  0  0  0  0
    1.5000    0.0000    0.0000 C   0  0  0  0  0  0  0  0  0  0  0  0
    0.7500    1.2990    0.0000 C   0  0  0  0  0  0  0  0  0  0  0  0
   -0.7500    1.2990    0.0000 N   0  0  0  0  0  0  0  0  0  0  0  0
   -1.5000    0.0000    0.0000 C   0  0  0  0  0  0  0  0  0  0  0  0
   -0.7500   -1.2990    0.0000 C   0  0  0  0  0  0  0  0  0  0  0  0
    1.1382   -5.3460    0.0000 C   0  0  0  0  0  0  0  0  0  0  0  0
    2.4373   -6.0960    0.0000 O   0  0  0  0  0  0  0  0  0  0  0  0
   -0.3107   -5.7342    0.0000 C   0  0  0  0  0  0  0  0  0  0  0  0
   -1.0607   -7.0333    0.0000 O   0  0  0  0  0  0  0  0  0  0  0  0
   -3.2970   -5.7853    0.0000 C   0  0  0  0  0  0  0  0  0  0  0  0
   -4.7970   -5.7853    0.0000 C   0  0  0  0  0  0  0  0  0  0  0  0
   -1.7970   -5.7853    0.0000 C   0  0  0  0  0  0  0  0  0  0  0  0
   -3.2970   -7.2853    0.0000 C   0  0  0  0  0  0  0  0  0  0  0  0
  1  2  1  0
  2  3  1  0
  3  4  1  0
  4  5  2  0
  5  6  1  0
  6  7  1  0
  7  8  2  0
  7  9  1  0
  6 10  1  0
 10 11  2  0
 11 12  1  0
 12 13  2  0
 13 14  1  0
 14 15  2  0
  5 16  1  0
 16 17  2  0
 16 18  1  0
 18 19  2  0
  2 20  1  0
 20 21  1  0
 20 22  1  0
 20 23  1  0
 18  4  1  0
 15 10  1  0
M  END
>  <Molecule>  (293) 
CHEMBL2005899

>  <Standard Type>  (293) 
Ki

>  <Standard Relation>  (293) 
>

>  <Standard Value>  (293) 
1584.89

>  <Standard Units>  (293) 
nM

>  <pChEMBL Value>  (293) 
nan

>  <Comment>  (293) 
inactive

>  <Compound Key>  (293) 
SID103905650

>  <Assay>  (293) 
CHEMBL1963742

>  <Assay Description>  (293) 
PUBCHEM_BIOASSAY: Navigating the Kinome. (Class of assay: other) Panel member name: JAK3

>  <BAO Format>  (293) 
assay format

>  <Target>  (293) 
CHEMBL2148

>  <Target Pref. Name>  (293) 
Tyrosine-protein kinase JAK3

>  <Target Organism>  (293) 
Homo sapiens

>  <Target Type>  (293) 
SINGLE PROTEIN

>  <Document>  (293) 
CHEMBL1201862

>  <Source>  (293) 
PubChem BioAssays

>  <Max Phase>  (293) 
0

>  <#Ro5 Violations>  (293) 
0

>  <Molecular Weight>  (293) 
315.37

>  <Ligand Efficiency BEI>  (293) 
nan

>  <Ligand Efficiency LE>  (293) 
nan

>  <Ligand Efficiency LLE>  (293) 
nan

>  <Ligand Efficiency SEI>  (293) 
nan

>  <ALogP>  (293) 
2.21

>  <Assay Organism>  (293) 
nan

>  <Assay Tissue ChEMBL ID>  (293) 
nan

>  <Assay Tissue Name>  (293) 
nan

>  <Assay Cell Type>  (293) 
nan

>  <Assay Subcellular Fraction>  (293) 
nan

>  <Organism Tax ID>  (293) 
9606

>  <BAO Format ID>  (293) 
BAO_0000019

>  <Published Type>  (293) 
nan

>  <Published Relation>  (293) 
nan

>  <Published Value>  (293) 
nan

>  <Published Units>  (293) 
nan

>  <Canonical Smiles>  (293) 
CC(NC1=C(N(C(=O)C)c2ccncc2)C(=O)C1=O)C(C)(C)C

>  <Data Validity Comment>  (293) 
nan

>  <Document Journal>  (293) 
nan

>  <Document Year>  (293) 
nan

>  <SRC ID>  (293) 
7

>  <UO Units>  (293) 
UO_0000065

>  <Potential Duplicate>  (293) 
False

>  <Class>  (293) 
0

$$$$

     RDKit          2D

 26 28  0  0  0  0  0  0  0  0999 V2000
    3.7500   -1.2990    0.0000 C   0  0  0  0  0  0  0  0  0  0  0  0
    3.0000    0.0000    0.0000 O   0  0  0  0  0  0  0  0  0  0  0  0
    1.5000    0.0000    0.0000 C   0  0  0  0  0  0  0  0  0  0  0  0
    0.7500   -1.2990    0.0000 C   0  0  0  0  0  0  0  0  0  0  0  0
   -0.7500   -1.2990    0.0000 C   0  0  0  0  0  0  0  0  0  0  0  0
   -1.5000    0.0000    0.0000 C   0  0  0  0  0  0  0  0  0  0  0  0
   -3.0000    0.0000    0.0000 C   0  0  0  0  0  0  0  0  0  0  0  0
   -3.7500   -1.2990    0.0000 N   0  0  0  0  0  0  0  0  0  0  0  0
   -5.2500   -1.2990    0.0000 C   0  0  0  0  0  0  0  0  0  0  0  0
   -6.0000    0.0000    0.0000 O   0  0  0  0  0  0  0  0  0  0  0  0
   -6.0000   -2.5981    0.0000 N   0  0  0  0  0  0  0  0  0  0  0  0
   -7.5000   -2.5981    0.0000 C   0  0  0  0  0  0  0  0  0  0  0  0
   -8.2500   -1.2990    0.0000 C   0  0  0  0  0  0  0  0  0  0  0  0
   -9.7500   -1.2990    0.0000 C   0  0  0  0  0  0  0  0  0  0  0  0
  -10.5000   -2.5981    0.0000 C   0  0  0  0  0  0  0  0  0  0  0  0
   -9.7500   -3.8971    0.0000 C   0  0  0  0  0  0  0  0  0  0  0  0
   -8.2500   -3.8971    0.0000 N   0  0  0  0  0  0  0  0  0  0  0  0
  -10.5000    0.0000    0.0000 C   0  0  0  0  0  0  0  0  0  0  0  0
  -11.2500    1.2990    0.0000 F   0  0  0  0  0  0  0  0  0  0  0  0
   -9.2010    0.7500    0.0000 F   0  0  0  0  0  0  0  0  0  0  0  0
  -11.7990   -0.7500    0.0000 F   0  0  0  0  0  0  0  0  0  0  0  0
   -3.7500    1.2990    0.0000 C   0  0  0  0  0  0  0  0  0  0  0  0
   -3.0000    2.5981    0.0000 C   0  0  0  0  0  0  0  0  0  0  0  0
   -1.5000    2.5981    0.0000 N   0  0  0  0  0  0  0  0  0  0  0  0
   -0.7500    1.2990    0.0000 C   0  0  0  0  0  0  0  0  0  0  0  0
    0.7500    1.2990    0.0000 C   0  0  0  0  0  0  0  0  0  0  0  0
  1  2  1  0
  2  3  1  0
  3  4  2  0
  4  5  1  0
  5  6  2  0
  6  7  1  0
  7  8  1  0
  8  9  1  0
  9 10  2  0
  9 11  1  0
 11 12  1  0
 12 13  2  0
 13 14  1  0
 14 15  2  0
 15 16  1  0
 16 17  2  0
 14 18  1  0
 18 19  1  0
 18 20  1  0
 18 21  1  0
  7 22  2  0
 22 23  1  0
 23 24  2  0
 24 25  1  0
 25 26  2  0
 26  3  1  0
 25  6  1  0
 17 12  1  0
M  END
>  <Molecule>  (294) 
CHEMBL1979176

>  <Standard Type>  (294) 
Ki

>  <Standard Relation>  (294) 
>

>  <Standard Value>  (294) 
1584.89

>  <Standard Units>  (294) 
nM

>  <pChEMBL Value>  (294) 
nan

>  <Comment>  (294) 
inactive

>  <Compound Key>  (294) 
SID103904896

>  <Assay>  (294) 
CHEMBL1963742

>  <Assay Description>  (294) 
PUBCHEM_BIOASSAY: Navigating the Kinome. (Class of assay: other) Panel member name: JAK3

>  <BAO Format>  (294) 
assay format

>  <Target>  (294) 
CHEMBL2148

>  <Target Pref. Name>  (294) 
Tyrosine-protein kinase JAK3

>  <Target Organism>  (294) 
Homo sapiens

>  <Target Type>  (294) 
SINGLE PROTEIN

>  <Document>  (294) 
CHEMBL1201862

>  <Source>  (294) 
PubChem BioAssays

>  <Max Phase>  (294) 
0

>  <#Ro5 Violations>  (294) 
0

>  <Molecular Weight>  (294) 
362.31

>  <Ligand Efficiency BEI>  (294) 
nan

>  <Ligand Efficiency LE>  (294) 
nan

>  <Ligand Efficiency LLE>  (294) 
nan

>  <Ligand Efficiency SEI>  (294) 
nan

>  <ALogP>  (294) 
4.3

>  <Assay Organism>  (294) 
nan

>  <Assay Tissue ChEMBL ID>  (294) 
nan

>  <Assay Tissue Name>  (294) 
nan

>  <Assay Cell Type>  (294) 
nan

>  <Assay Subcellular Fraction>  (294) 
nan

>  <Organism Tax ID>  (294) 
9606

>  <BAO Format ID>  (294) 
BAO_0000019

>  <Published Type>  (294) 
nan

>  <Published Relation>  (294) 
nan

>  <Published Value>  (294) 
nan

>  <Published Units>  (294) 
nan

>  <Canonical Smiles>  (294) 
COc1ccc2c(NC(=O)Nc3cc(ccn3)C(F)(F)F)ccnc2c1

>  <Data Validity Comment>  (294) 
nan

>  <Document Journal>  (294) 
nan

>  <Document Year>  (294) 
nan

>  <SRC ID>  (294) 
7

>  <UO Units>  (294) 
UO_0000065

>  <Potential Duplicate>  (294) 
False

>  <Class>  (294) 
0

$$$$

     RDKit          2D

 31 34  0  0  0  0  0  0  0  0999 V2000
   -8.7911  -13.3831    0.0000 C   0  0  0  0  0  0  0  0  0  0  0  0
   -7.3645  -12.9195    0.0000 C   0  0  0  0  0  0  0  0  0  0  0  0
   -7.0526  -11.4523    0.0000 N   0  0  0  0  0  0  0  0  0  0  0  0
   -8.1673  -10.4486    0.0000 C   0  0  0  0  0  0  0  0  0  0  0  0
   -7.8555   -8.9814    0.0000 C   0  0  0  0  0  0  0  0  0  0  0  0
   -6.4289   -8.5179    0.0000 N   0  0  0  0  0  0  0  0  0  0  0  0
   -6.1170   -7.0506    0.0000 C   0  0  0  0  0  0  0  0  0  0  0  0
   -4.6904   -6.5871    0.0000 C   0  0  0  0  0  0  0  0  0  0  0  0
   -4.3786   -5.1199    0.0000 C   0  0  0  0  0  0  0  0  0  0  0  0
   -2.9520   -4.6564    0.0000 C   0  0  0  0  0  0  0  0  0  0  0  0
   -1.8373   -5.6601    0.0000 O   0  0  0  0  0  0  0  0  0  0  0  0
   -2.6401   -3.1891    0.0000 N   0  0  0  0  0  0  0  0  0  0  0  0
   -1.2135   -2.7256    0.0000 C   0  0  0  0  0  0  0  0  0  0  0  0
    0.0000   -3.6073    0.0000 N   0  0  0  0  0  0  0  0  0  0  0  0
    1.2135   -2.7256    0.0000 N   0  0  0  0  0  0  0  0  0  0  0  0
    0.7500   -1.2990    0.0000 C   0  0  0  0  0  0  0  0  0  0  0  0
    1.5000    0.0000    0.0000 N   0  0  0  0  0  0  0  0  0  0  0  0
    0.7500    1.2990    0.0000 N   0  0  0  0  0  0  0  0  0  0  0  0
   -0.7500    1.2990    0.0000 C   0  0  0  0  0  0  0  0  0  0  0  0
   -1.5000    0.0000    0.0000 C   0  0  0  0  0  0  0  0  0  0  0  0
   -0.7500   -1.2990    0.0000 C   0  0  0  0  0  0  0  0  0  0  0  0
   -1.5000    2.5981    0.0000 C   0  0  0  0  0  0  0  0  0  0  0  0
   -0.7500    3.8971    0.0000 C   0  0  0  0  0  0  0  0  0  0  0  0
   -1.5000    5.1962    0.0000 C   0  0  0  0  0  0  0  0  0  0  0  0
   -3.0000    5.1962    0.0000 C   0  0  0  0  0  0  0  0  0  0  0  0
   -3.7500    3.8971    0.0000 C   0  0  0  0  0  0  0  0  0  0  0  0
   -5.2500    3.8971    0.0000 F   0  0  0  0  0  0  0  0  0  0  0  0
   -3.0000    2.5981    0.0000 C   0  0  0  0  0  0  0  0  0  0  0  0
   -3.7500    1.2990    0.0000 F   0  0  0  0  0  0  0  0  0  0  0  0
   -5.3142   -9.5216    0.0000 C   0  0  0  0  0  0  0  0  0  0  0  0
   -5.6260  -10.9888    0.0000 C   0  0  0  0  0  0  0  0  0  0  0  0
  1  2  1  0
  2  3  1  0
  3  4  1  0
  4  5  1  0
  5  6  1  0
  6  7  1  0
  7  8  1  0
  8  9  1  0
  9 10  1  0
 10 11  2  0
 10 12  1  0
 12 13  1  0
 13 14  2  0
 14 15  1  0
 15 16  1  0
 16 17  2  0
 17 18  1  0
 18 19  2  0
 19 20  1  0
 20 21  2  0
 19 22  1  0
 22 23  2  0
 23 24  1  0
 24 25  2  0
 25 26  1  0
 26 27  1  0
 26 28  2  0
 28 29  1  0
  6 30  1  0
 30 31  1  0
 31  3  1  0
 21 13  1  0
 21 16  1  0
 28 22  1  0
M  END
>  <Molecule>  (295) 
CHEMBL1992740

>  <Standard Type>  (295) 
Ki

>  <Standard Relation>  (295) 
>

>  <Standard Value>  (295) 
1584.89

>  <Standard Units>  (295) 
nM

>  <pChEMBL Value>  (295) 
nan

>  <Comment>  (295) 
inactive

>  <Compound Key>  (295) 
SID103905384

>  <Assay>  (295) 
CHEMBL1963742

>  <Assay Description>  (295) 
PUBCHEM_BIOASSAY: Navigating the Kinome. (Class of assay: other) Panel member name: JAK3

>  <BAO Format>  (295) 
assay format

>  <Target>  (295) 
CHEMBL2148

>  <Target Pref. Name>  (295) 
Tyrosine-protein kinase JAK3

>  <Target Organism>  (295) 
Homo sapiens

>  <Target Type>  (295) 
SINGLE PROTEIN

>  <Document>  (295) 
CHEMBL1201862

>  <Source>  (295) 
PubChem BioAssays

>  <Max Phase>  (295) 
0

>  <#Ro5 Violations>  (295) 
0

>  <Molecular Weight>  (295) 
429.48

>  <Ligand Efficiency BEI>  (295) 
nan

>  <Ligand Efficiency LE>  (295) 
nan

>  <Ligand Efficiency LLE>  (295) 
nan

>  <Ligand Efficiency SEI>  (295) 
nan

>  <ALogP>  (295) 
2.65

>  <Assay Organism>  (295) 
nan

>  <Assay Tissue ChEMBL ID>  (295) 
nan

>  <Assay Tissue Name>  (295) 
nan

>  <Assay Cell Type>  (295) 
nan

>  <Assay Subcellular Fraction>  (295) 
nan

>  <Organism Tax ID>  (295) 
9606

>  <BAO Format ID>  (295) 
BAO_0000019

>  <Published Type>  (295) 
nan

>  <Published Relation>  (295) 
nan

>  <Published Value>  (295) 
nan

>  <Published Units>  (295) 
nan

>  <Canonical Smiles>  (295) 
CCN1CCN(CCCC(=O)Nc2n[nH]c3nnc(cc23)c4cccc(F)c4F)CC1

>  <Data Validity Comment>  (295) 
nan

>  <Document Journal>  (295) 
nan

>  <Document Year>  (295) 
nan

>  <SRC ID>  (295) 
7

>  <UO Units>  (295) 
UO_0000065

>  <Potential Duplicate>  (295) 
False

>  <Class>  (295) 
0

$$$$

     RDKit          2D

 19 21  0  0  0  0  0  0  0  0999 V2000
   -6.1170   -9.6487    0.0000 C   0  0  0  0  0  0  0  0  0  0  0  0
   -4.6904   -9.1852    0.0000 C   0  0  0  0  0  0  0  0  0  0  0  0
   -4.3786   -7.7180    0.0000 C   0  0  0  0  0  0  0  0  0  0  0  0
   -2.9520   -7.2544    0.0000 C   0  0  0  0  0  0  0  0  0  0  0  0
   -1.8373   -8.2581    0.0000 O   0  0  0  0  0  0  0  0  0  0  0  0
   -2.6401   -5.7872    0.0000 N   0  0  0  0  0  0  0  0  0  0  0  0
   -1.2135   -5.3237    0.0000 C   0  0  0  0  0  0  0  0  0  0  0  0
   -0.0000   -6.2054    0.0000 N   0  0  0  0  0  0  0  0  0  0  0  0
    1.2135   -5.3237    0.0000 N   0  0  0  0  0  0  0  0  0  0  0  0
    0.7500   -3.8971    0.0000 C   0  0  0  0  0  0  0  0  0  0  0  0
    1.5000   -2.5981    0.0000 N   0  0  0  0  0  0  0  0  0  0  0  0
    0.7500   -1.2990    0.0000 C   0  0  0  0  0  0  0  0  0  0  0  0
    1.5000    0.0000    0.0000 C   0  0  0  0  0  0  0  0  0  0  0  0
    0.7500    1.2990    0.0000 C   0  0  0  0  0  0  0  0  0  0  0  0
   -0.7500    1.2990    0.0000 C   0  0  0  0  0  0  0  0  0  0  0  0
   -1.5000    0.0000    0.0000 C   0  0  0  0  0  0  0  0  0  0  0  0
   -0.7500   -1.2990    0.0000 C   0  0  0  0  0  0  0  0  0  0  0  0
   -1.5000   -2.5981    0.0000 C   0  0  0  0  0  0  0  0  0  0  0  0
   -0.7500   -3.8971    0.0000 C   0  0  0  0  0  0  0  0  0  0  0  0
  1  2  1  0
  2  3  1  0
  3  4  1  0
  4  5  2  0
  4  6  1  0
  6  7  1  0
  7  8  2  0
  8  9  1  0
  9 10  1  0
 10 11  2  0
 11 12  1  0
 12 13  2  0
 13 14  1  0
 14 15  2  0
 15 16  1  0
 16 17  2  0
 17 18  1  0
 18 19  2  0
 19  7  1  0
 19 10  1  0
 17 12  1  0
M  END
>  <Molecule>  (296) 
CHEMBL1967564

>  <Standard Type>  (296) 
Ki

>  <Standard Relation>  (296) 
>

>  <Standard Value>  (296) 
1584.89

>  <Standard Units>  (296) 
nM

>  <pChEMBL Value>  (296) 
nan

>  <Comment>  (296) 
inactive

>  <Compound Key>  (296) 
SID103905382

>  <Assay>  (296) 
CHEMBL1963742

>  <Assay Description>  (296) 
PUBCHEM_BIOASSAY: Navigating the Kinome. (Class of assay: other) Panel member name: JAK3

>  <BAO Format>  (296) 
assay format

>  <Target>  (296) 
CHEMBL2148

>  <Target Pref. Name>  (296) 
Tyrosine-protein kinase JAK3

>  <Target Organism>  (296) 
Homo sapiens

>  <Target Type>  (296) 
SINGLE PROTEIN

>  <Document>  (296) 
CHEMBL1201862

>  <Source>  (296) 
PubChem BioAssays

>  <Max Phase>  (296) 
0

>  <#Ro5 Violations>  (296) 
0

>  <Molecular Weight>  (296) 
254.29

>  <Ligand Efficiency BEI>  (296) 
nan

>  <Ligand Efficiency LE>  (296) 
nan

>  <Ligand Efficiency LLE>  (296) 
nan

>  <Ligand Efficiency SEI>  (296) 
nan

>  <ALogP>  (296) 
2.85

>  <Assay Organism>  (296) 
nan

>  <Assay Tissue ChEMBL ID>  (296) 
nan

>  <Assay Tissue Name>  (296) 
nan

>  <Assay Cell Type>  (296) 
nan

>  <Assay Subcellular Fraction>  (296) 
nan

>  <Organism Tax ID>  (296) 
9606

>  <BAO Format ID>  (296) 
BAO_0000019

>  <Published Type>  (296) 
nan

>  <Published Relation>  (296) 
nan

>  <Published Value>  (296) 
nan

>  <Published Units>  (296) 
nan

>  <Canonical Smiles>  (296) 
CCCC(=O)Nc1n[nH]c2nc3ccccc3cc12

>  <Data Validity Comment>  (296) 
nan

>  <Document Journal>  (296) 
nan

>  <Document Year>  (296) 
nan

>  <SRC ID>  (296) 
7

>  <UO Units>  (296) 
UO_0000065

>  <Potential Duplicate>  (296) 
False

>  <Class>  (296) 
0

$$$$

     RDKit          2D

 28 31  0  0  0  0  0  0  0  0999 V2000
   -0.7500  -11.6913    0.0000 C   0  0  0  0  0  0  0  0  0  0  0  0
    0.7500  -11.6913    0.0000 C   0  0  0  0  0  0  0  0  0  0  0  0
    1.5000  -10.3923    0.0000 C   0  0  0  0  0  0  0  0  0  0  0  0
    3.0000  -10.3923    0.0000 C   0  0  0  0  0  0  0  0  0  0  0  0
    3.7500   -9.0933    0.0000 N   0  0  0  0  0  0  0  0  0  0  0  0
    3.0000   -7.7942    0.0000 C   0  0  0  0  0  0  0  0  0  0  0  0
    1.5000   -7.7942    0.0000 O   0  0  0  0  0  0  0  0  0  0  0  0
    3.7500   -6.4952    0.0000 C   0  0  0  0  0  0  0  0  0  0  0  0
    3.0000   -5.1962    0.0000 C   0  0  0  0  0  0  0  0  0  0  0  0
    3.7500   -3.8971    0.0000 C   0  0  0  0  0  0  0  0  0  0  0  0
    3.0000   -2.5981    0.0000 C   0  0  0  0  0  0  0  0  0  0  0  0
    1.5000   -2.5981    0.0000 C   0  0  0  0  0  0  0  0  0  0  0  0
    0.7500   -3.8971    0.0000 C   0  0  0  0  0  0  0  0  0  0  0  0
    1.5000   -5.1962    0.0000 C   0  0  0  0  0  0  0  0  0  0  0  0
    0.7500   -1.2990    0.0000 C   0  0  0  0  0  0  0  0  0  0  0  0
    1.5000    0.0000    0.0000 C   0  0  0  0  0  0  0  0  0  0  0  0
    0.7500    1.2990    0.0000 C   0  0  0  0  0  0  0  0  0  0  0  0
   -0.7500    1.2990    0.0000 C   0  0  0  0  0  0  0  0  0  0  0  0
   -1.5000    0.0000    0.0000 C   0  0  0  0  0  0  0  0  0  0  0  0
   -2.9672   -0.3119    0.0000 N   0  0  0  0  0  0  0  0  0  0  0  0
   -3.1240   -1.8037    0.0000 N   0  0  0  0  0  0  0  0  0  0  0  0
   -1.7537   -2.4138    0.0000 C   0  0  0  0  0  0  0  0  0  0  0  0
   -1.4418   -3.8810    0.0000 N   0  0  0  0  0  0  0  0  0  0  0  0
   -0.7500   -1.2990    0.0000 C   0  0  0  0  0  0  0  0  0  0  0  0
    3.7500  -11.6913    0.0000 C   0  0  0  0  0  0  0  0  0  0  0  0
    3.0000  -12.9904    0.0000 C   0  0  0  0  0  0  0  0  0  0  0  0
    1.5000  -12.9904    0.0000 C   0  0  0  0  0  0  0  0  0  0  0  0
    0.7500  -14.2894    0.0000 F   0  0  0  0  0  0  0  0  0  0  0  0
  1  2  1  0
  2  3  2  0
  3  4  1  0
  4  5  1  0
  5  6  1  0
  6  7  2  0
  6  8  1  0
  8  9  1  0
  9 10  2  0
 10 11  1  0
 11 12  2  0
 12 13  1  0
 13 14  2  0
 12 15  1  0
 15 16  2  0
 16 17  1  0
 17 18  2  0
 18 19  1  0
 19 20  1  0
 20 21  1  0
 21 22  2  0
 22 23  1  0
 22 24  1  0
  4 25  2  0
 25 26  1  0
 26 27  2  0
 27 28  1  0
 27  2  1  0
 14  9  1  0
 24 15  1  0
 24 19  2  0
M  END
>  <Molecule>  (297) 
CHEMBL1984363

>  <Standard Type>  (297) 
Ki

>  <Standard Relation>  (297) 
>

>  <Standard Value>  (297) 
1584.89

>  <Standard Units>  (297) 
nM

>  <pChEMBL Value>  (297) 
nan

>  <Comment>  (297) 
inactive

>  <Compound Key>  (297) 
SID103905034

>  <Assay>  (297) 
CHEMBL1963742

>  <Assay Description>  (297) 
PUBCHEM_BIOASSAY: Navigating the Kinome. (Class of assay: other) Panel member name: JAK3

>  <BAO Format>  (297) 
assay format

>  <Target>  (297) 
CHEMBL2148

>  <Target Pref. Name>  (297) 
Tyrosine-protein kinase JAK3

>  <Target Organism>  (297) 
Homo sapiens

>  <Target Type>  (297) 
SINGLE PROTEIN

>  <Document>  (297) 
CHEMBL1201862

>  <Source>  (297) 
PubChem BioAssays

>  <Max Phase>  (297) 
0

>  <#Ro5 Violations>  (297) 
0

>  <Molecular Weight>  (297) 
374.42

>  <Ligand Efficiency BEI>  (297) 
nan

>  <Ligand Efficiency LE>  (297) 
nan

>  <Ligand Efficiency LLE>  (297) 
nan

>  <Ligand Efficiency SEI>  (297) 
nan

>  <ALogP>  (297) 
4.44

>  <Assay Organism>  (297) 
nan

>  <Assay Tissue ChEMBL ID>  (297) 
nan

>  <Assay Tissue Name>  (297) 
nan

>  <Assay Cell Type>  (297) 
nan

>  <Assay Subcellular Fraction>  (297) 
nan

>  <Organism Tax ID>  (297) 
9606

>  <BAO Format ID>  (297) 
BAO_0000019

>  <Published Type>  (297) 
nan

>  <Published Relation>  (297) 
nan

>  <Published Value>  (297) 
nan

>  <Published Units>  (297) 
nan

>  <Canonical Smiles>  (297) 
Cc1cc(NC(=O)Cc2ccc(cc2)c3cccc4[nH]nc(N)c34)ccc1F

>  <Data Validity Comment>  (297) 
nan

>  <Document Journal>  (297) 
nan

>  <Document Year>  (297) 
nan

>  <SRC ID>  (297) 
7

>  <UO Units>  (297) 
UO_0000065

>  <Potential Duplicate>  (297) 
False

>  <Class>  (297) 
0

$$$$

     RDKit          2D

 25 27  0  0  0  0  0  0  0  0999 V2000
    9.0000    0.0000    0.0000 F   0  0  0  0  0  0  0  0  0  0  0  0
    8.2500   -1.2990    0.0000 C   0  0  0  0  0  0  0  0  0  0  0  0
    9.5490   -2.0490    0.0000 F   0  0  0  0  0  0  0  0  0  0  0  0
    6.9510   -0.5490    0.0000 F   0  0  0  0  0  0  0  0  0  0  0  0
    7.5000   -2.5981    0.0000 C   0  0  0  0  0  0  0  0  0  0  0  0
    8.2500   -3.8971    0.0000 C   0  0  0  0  0  0  0  0  0  0  0  0
    7.5000   -5.1962    0.0000 C   0  0  0  0  0  0  0  0  0  0  0  0
    6.0000   -5.1962    0.0000 C   0  0  0  0  0  0  0  0  0  0  0  0
    5.2500   -3.8971    0.0000 C   0  0  0  0  0  0  0  0  0  0  0  0
    3.7500   -3.8971    0.0000 N   0  0  0  0  0  0  0  0  0  0  0  0
    3.0000   -2.5981    0.0000 C   0  0  0  0  0  0  0  0  0  0  0  0
    3.7500   -1.2990    0.0000 O   0  0  0  0  0  0  0  0  0  0  0  0
    1.5000   -2.5981    0.0000 N   0  0  0  0  0  0  0  0  0  0  0  0
    0.7500   -1.2990    0.0000 C   0  0  0  0  0  0  0  0  0  0  0  0
    1.5000    0.0000    0.0000 C   0  0  0  0  0  0  0  0  0  0  0  0
    0.7500    1.2990    0.0000 C   0  0  0  0  0  0  0  0  0  0  0  0
   -0.7500    1.2990    0.0000 N   0  0  0  0  0  0  0  0  0  0  0  0
   -1.5000    0.0000    0.0000 C   0  0  0  0  0  0  0  0  0  0  0  0
   -3.0000    0.0000    0.0000 C   0  0  0  0  0  0  0  0  0  0  0  0
   -3.7500   -1.2990    0.0000 C   0  0  0  0  0  0  0  0  0  0  0  0
   -5.2500   -1.2990    0.0000 Cl  0  0  0  0  0  0  0  0  0  0  0  0
   -3.0000   -2.5981    0.0000 C   0  0  0  0  0  0  0  0  0  0  0  0
   -1.5000   -2.5981    0.0000 C   0  0  0  0  0  0  0  0  0  0  0  0
   -0.7500   -1.2990    0.0000 C   0  0  0  0  0  0  0  0  0  0  0  0
    6.0000   -2.5981    0.0000 N   0  0  0  0  0  0  0  0  0  0  0  0
  1  2  1  0
  2  3  1  0
  2  4  1  0
  2  5  1  0
  5  6  2  0
  6  7  1  0
  7  8  2  0
  8  9  1  0
  9 10  1  0
 10 11  1  0
 11 12  2  0
 11 13  1  0
 13 14  1  0
 14 15  2  0
 15 16  1  0
 16 17  2  0
 17 18  1  0
 18 19  2  0
 19 20  1  0
 20 21  1  0
 20 22  2  0
 22 23  1  0
 23 24  2  0
  9 25  2  0
 25  5  1  0
 24 14  1  0
 24 18  1  0
M  END
>  <Molecule>  (298) 
CHEMBL1981744

>  <Standard Type>  (298) 
Ki

>  <Standard Relation>  (298) 
=

>  <Standard Value>  (298) 
3981.07

>  <Standard Units>  (298) 
nM

>  <pChEMBL Value>  (298) 
5.4

>  <Comment>  (298) 
active

>  <Compound Key>  (298) 
SID103904868

>  <Assay>  (298) 
CHEMBL1963742

>  <Assay Description>  (298) 
PUBCHEM_BIOASSAY: Navigating the Kinome. (Class of assay: other) Panel member name: JAK3

>  <BAO Format>  (298) 
assay format

>  <Target>  (298) 
CHEMBL2148

>  <Target Pref. Name>  (298) 
Tyrosine-protein kinase JAK3

>  <Target Organism>  (298) 
Homo sapiens

>  <Target Type>  (298) 
SINGLE PROTEIN

>  <Document>  (298) 
CHEMBL1201862

>  <Source>  (298) 
PubChem BioAssays

>  <Max Phase>  (298) 
0

>  <#Ro5 Violations>  (298) 
0

>  <Molecular Weight>  (298) 
366.73

>  <Ligand Efficiency BEI>  (298) 
nan

>  <Ligand Efficiency LE>  (298) 
nan

>  <Ligand Efficiency LLE>  (298) 
nan

>  <Ligand Efficiency SEI>  (298) 
nan

>  <ALogP>  (298) 
4.95

>  <Assay Organism>  (298) 
nan

>  <Assay Tissue ChEMBL ID>  (298) 
nan

>  <Assay Tissue Name>  (298) 
nan

>  <Assay Cell Type>  (298) 
nan

>  <Assay Subcellular Fraction>  (298) 
nan

>  <Organism Tax ID>  (298) 
9606

>  <BAO Format ID>  (298) 
BAO_0000019

>  <Published Type>  (298) 
nan

>  <Published Relation>  (298) 
nan

>  <Published Value>  (298) 
nan

>  <Published Units>  (298) 
nan

>  <Canonical Smiles>  (298) 
FC(F)(F)c1cccc(NC(=O)Nc2ccnc3cc(Cl)ccc23)n1

>  <Data Validity Comment>  (298) 
nan

>  <Document Journal>  (298) 
nan

>  <Document Year>  (298) 
nan

>  <SRC ID>  (298) 
7

>  <UO Units>  (298) 
UO_0000065

>  <Potential Duplicate>  (298) 
False

>  <Class>  (298) 
1

$$$$

     RDKit          2D

 26 28  0  0  0  0  0  0  0  0999 V2000
   -2.5607   -7.0333    0.0000 O   0  0  0  0  0  0  0  0  0  0  0  0
   -1.0607   -7.0333    0.0000 C   0  0  0  0  0  0  0  0  0  0  0  0
   -0.3107   -8.3323    0.0000 O   0  0  0  0  0  0  0  0  0  0  0  0
   -0.3107   -5.7342    0.0000 C   0  0  0  0  0  0  0  0  0  0  0  0
   -0.6989   -4.2853    0.0000 C   0  0  0  0  0  0  0  0  0  0  0  0
    0.7500   -3.8971    0.0000 N   0  0  0  0  0  0  0  0  0  0  0  0
    1.5000   -2.5981    0.0000 C   0  0  0  0  0  0  0  0  0  0  0  0
    0.7500   -1.2990    0.0000 C   0  0  0  0  0  0  0  0  0  0  0  0
    1.5000    0.0000    0.0000 C   0  0  0  0  0  0  0  0  0  0  0  0
    0.7500    1.2990    0.0000 C   0  0  0  0  0  0  0  0  0  0  0  0
   -0.7500    1.2990    0.0000 C   0  0  0  0  0  0  0  0  0  0  0  0
   -1.5000    2.5981    0.0000 O   0  0  0  0  0  0  0  0  0  0  0  0
   -0.7500    3.8971    0.0000 C   0  0  0  0  0  0  0  0  0  0  0  0
   -1.5000    5.1962    0.0000 C   0  0  0  0  0  0  0  0  0  0  0  0
   -0.7500    6.4952    0.0000 C   0  0  0  0  0  0  0  0  0  0  0  0
   -1.5000    7.7942    0.0000 C   0  0  0  0  0  0  0  0  0  0  0  0
   -3.0000    7.7942    0.0000 C   0  0  0  0  0  0  0  0  0  0  0  0
   -3.7500    6.4952    0.0000 C   0  0  0  0  0  0  0  0  0  0  0  0
   -3.0000    5.1962    0.0000 C   0  0  0  0  0  0  0  0  0  0  0  0
   -5.2500    6.4952    0.0000 C   0  0  0  0  0  0  0  0  0  0  0  0
   -6.7500    6.4952    0.0000 F   0  0  0  0  0  0  0  0  0  0  0  0
   -5.2500    7.9952    0.0000 F   0  0  0  0  0  0  0  0  0  0  0  0
   -5.2500    4.9952    0.0000 F   0  0  0  0  0  0  0  0  0  0  0  0
   -1.5000    0.0000    0.0000 C   0  0  0  0  0  0  0  0  0  0  0  0
   -0.7500   -1.2990    0.0000 C   0  0  0  0  0  0  0  0  0  0  0  0
    1.1382   -5.3460    0.0000 C   0  0  0  0  0  0  0  0  0  0  0  0
  1  2  1  0
  2  3  2  0
  2  4  1  0
  4  5  1  0
  5  6  1  0
  6  7  1  0
  7  8  1  0
  8  9  2  0
  9 10  1  0
 10 11  2  0
 11 12  1  0
 12 13  1  0
 13 14  1  0
 14 15  2  0
 15 16  1  0
 16 17  2  0
 17 18  1  0
 18 19  2  0
 18 20  1  0
 20 21  1  0
 20 22  1  0
 20 23  1  0
 11 24  1  0
 24 25  2  0
  6 26  1  0
 26  4  1  0
 25  8  1  0
 19 14  1  0
M  END
>  <Molecule>  (299) 
CHEMBL1971132

>  <Standard Type>  (299) 
Ki

>  <Standard Relation>  (299) 
>

>  <Standard Value>  (299) 
5011.87

>  <Standard Units>  (299) 
nM

>  <pChEMBL Value>  (299) 
nan

>  <Comment>  (299) 
inactive

>  <Compound Key>  (299) 
SID103904933

>  <Assay>  (299) 
CHEMBL1963742

>  <Assay Description>  (299) 
PUBCHEM_BIOASSAY: Navigating the Kinome. (Class of assay: other) Panel member name: JAK3

>  <BAO Format>  (299) 
assay format

>  <Target>  (299) 
CHEMBL2148

>  <Target Pref. Name>  (299) 
Tyrosine-protein kinase JAK3

>  <Target Organism>  (299) 
Homo sapiens

>  <Target Type>  (299) 
SINGLE PROTEIN

>  <Document>  (299) 
CHEMBL1201862

>  <Source>  (299) 
PubChem BioAssays

>  <Max Phase>  (299) 
0

>  <#Ro5 Violations>  (299) 
0

>  <Molecular Weight>  (299) 
365.35

>  <Ligand Efficiency BEI>  (299) 
nan

>  <Ligand Efficiency LE>  (299) 
nan

>  <Ligand Efficiency LLE>  (299) 
nan

>  <Ligand Efficiency SEI>  (299) 
nan

>  <ALogP>  (299) 
3.8

>  <Assay Organism>  (299) 
nan

>  <Assay Tissue ChEMBL ID>  (299) 
nan

>  <Assay Tissue Name>  (299) 
nan

>  <Assay Cell Type>  (299) 
nan

>  <Assay Subcellular Fraction>  (299) 
nan

>  <Organism Tax ID>  (299) 
9606

>  <BAO Format ID>  (299) 
BAO_0000019

>  <Published Type>  (299) 
nan

>  <Published Relation>  (299) 
nan

>  <Published Value>  (299) 
nan

>  <Published Units>  (299) 
nan

>  <Canonical Smiles>  (299) 
OC(=O)C1CN(Cc2ccc(OCc3cccc(c3)C(F)(F)F)cc2)C1

>  <Data Validity Comment>  (299) 
nan

>  <Document Journal>  (299) 
nan

>  <Document Year>  (299) 
nan

>  <SRC ID>  (299) 
7

>  <UO Units>  (299) 
UO_0000065

>  <Potential Duplicate>  (299) 
False

>  <Class>  (299) 
0

$$$$

     RDKit          2D

 31 34  0  0  0  0  0  0  0  0999 V2000
   -2.6401   -3.1891    0.0000 C   0  0  0  0  0  0  0  0  0  0  0  0
   -1.2135   -2.7256    0.0000 C   0  0  0  0  0  0  0  0  0  0  0  0
   -0.0000   -3.6073    0.0000 N   0  0  0  0  0  0  0  0  0  0  0  0
    1.2135   -2.7256    0.0000 N   0  0  0  0  0  0  0  0  0  0  0  0
    0.7500   -1.2990    0.0000 C   0  0  0  0  0  0  0  0  0  0  0  0
    1.5000    0.0000    0.0000 C   0  0  0  0  0  0  0  0  0  0  0  0
    0.7500    1.2990    0.0000 N   0  0  0  0  0  0  0  0  0  0  0  0
   -0.7500    1.2990    0.0000 C   0  0  0  0  0  0  0  0  0  0  0  0
   -1.5000    0.0000    0.0000 C   0  0  0  0  0  0  0  0  0  0  0  0
   -0.7500   -1.2990    0.0000 C   0  0  0  0  0  0  0  0  0  0  0  0
   -1.5000    2.5981    0.0000 C   0  0  0  0  0  0  0  0  0  0  0  0
   -0.7500    3.8971    0.0000 C   0  0  0  0  0  0  0  0  0  0  0  0
   -1.5000    5.1962    0.0000 N   0  0  0  0  0  0  0  0  0  0  0  0
   -3.0000    5.1962    0.0000 C   0  0  0  0  0  0  0  0  0  0  0  0
   -3.7500    3.8971    0.0000 C   0  0  0  0  0  0  0  0  0  0  0  0
   -5.2500    3.8971    0.0000 O   0  0  0  0  0  0  0  0  0  0  0  0
   -6.0000    5.1962    0.0000 C   0  0  0  0  0  0  0  0  0  0  0  0
   -7.5000    5.1962    0.0000 C   0  0  0  0  0  0  0  0  0  0  0  0
   -8.2500    3.8971    0.0000 N   0  0  0  0  0  0  0  0  0  0  0  0
   -8.2500    6.4952    0.0000 C   0  0  0  0  0  0  0  0  0  0  0  0
   -9.7500    6.4952    0.0000 C   0  0  0  0  0  0  0  0  0  0  0  0
  -10.5000    7.7942    0.0000 C   0  0  0  0  0  0  0  0  0  0  0  0
  -12.0000    7.7942    0.0000 C   0  0  0  0  0  0  0  0  0  0  0  0
  -12.7500    6.4952    0.0000 C   0  0  0  0  0  0  0  0  0  0  0  0
  -12.0000    5.1962    0.0000 C   0  0  0  0  0  0  0  0  0  0  0  0
  -10.5000    5.1962    0.0000 C   0  0  0  0  0  0  0  0  0  0  0  0
  -12.7500    3.8971    0.0000 C   0  0  0  0  0  0  0  0  0  0  0  0
  -13.5000    2.5981    0.0000 F   0  0  0  0  0  0  0  0  0  0  0  0
  -14.0490    4.6471    0.0000 F   0  0  0  0  0  0  0  0  0  0  0  0
  -11.4510    3.1471    0.0000 F   0  0  0  0  0  0  0  0  0  0  0  0
   -3.0000    2.5981    0.0000 C   0  0  0  0  0  0  0  0  0  0  0  0
  1  2  1  0
  2  3  2  0
  3  4  1  0
  4  5  1  0
  5  6  2  0
  6  7  1  0
  7  8  2  0
  8  9  1  0
  9 10  2  0
  8 11  1  0
 11 12  2  0
 12 13  1  0
 13 14  2  0
 14 15  1  0
 15 16  1  0
 16 17  1  0
 17 18  1  0
 18 19  1  0
 18 20  1  0
 20 21  1  0
 21 22  2  0
 22 23  1  0
 23 24  2  0
 24 25  1  0
 25 26  2  0
 25 27  1  0
 27 28  1  0
 27 29  1  0
 27 30  1  0
 15 31  2  0
 10  2  1  0
 10  5  1  0
 31 11  1  0
 26 21  1  0
M  END
>  <Molecule>  (300) 
CHEMBL1998159

>  <Standard Type>  (300) 
Ki

>  <Standard Relation>  (300) 
=

>  <Standard Value>  (300) 
1258.93

>  <Standard Units>  (300) 
nM

>  <pChEMBL Value>  (300) 
5.9

>  <Comment>  (300) 
active

>  <Compound Key>  (300) 
SID103905453

>  <Assay>  (300) 
CHEMBL1963742

>  <Assay Description>  (300) 
PUBCHEM_BIOASSAY: Navigating the Kinome. (Class of assay: other) Panel member name: JAK3

>  <BAO Format>  (300) 
assay format

>  <Target>  (300) 
CHEMBL2148

>  <Target Pref. Name>  (300) 
Tyrosine-protein kinase JAK3

>  <Target Organism>  (300) 
Homo sapiens

>  <Target Type>  (300) 
SINGLE PROTEIN

>  <Document>  (300) 
CHEMBL1201862

>  <Source>  (300) 
PubChem BioAssays

>  <Max Phase>  (300) 
0

>  <#Ro5 Violations>  (300) 
0

>  <Molecular Weight>  (300) 
427.43

>  <Ligand Efficiency BEI>  (300) 
nan

>  <Ligand Efficiency LE>  (300) 
nan

>  <Ligand Efficiency LLE>  (300) 
nan

>  <Ligand Efficiency SEI>  (300) 
nan

>  <ALogP>  (300) 
4.3

>  <Assay Organism>  (300) 
nan

>  <Assay Tissue ChEMBL ID>  (300) 
nan

>  <Assay Tissue Name>  (300) 
nan

>  <Assay Cell Type>  (300) 
nan

>  <Assay Subcellular Fraction>  (300) 
nan

>  <Organism Tax ID>  (300) 
9606

>  <BAO Format ID>  (300) 
BAO_0000019

>  <Published Type>  (300) 
nan

>  <Published Relation>  (300) 
nan

>  <Published Value>  (300) 
nan

>  <Published Units>  (300) 
nan

>  <Canonical Smiles>  (300) 
Cc1n[nH]c2cnc(cc12)c3cncc(OCC(N)Cc4cccc(c4)C(F)(F)F)c3

>  <Data Validity Comment>  (300) 
nan

>  <Document Journal>  (300) 
nan

>  <Document Year>  (300) 
nan

>  <SRC ID>  (300) 
7

>  <UO Units>  (300) 
UO_0000065

>  <Potential Duplicate>  (300) 
False

>  <Class>  (300) 
1

$$$$

     RDKit          2D

 36 40  0  0  0  0  0  0  0  0999 V2000
   -0.6996   -6.5218    0.0000 C   0  0  0  0  0  0  0  0  0  0  0  0
   -1.5813   -5.3083    0.0000 N   0  0  0  0  0  0  0  0  0  0  0  0
   -1.1178   -3.8817    0.0000 C   0  0  0  0  0  0  0  0  0  0  0  0
   -2.3313   -3.0000    0.0000 C   0  0  0  0  0  0  0  0  0  0  0  0
   -3.5449   -3.8817    0.0000 C   0  0  0  0  0  0  0  0  0  0  0  0
   -3.0813   -5.3083    0.0000 N   0  0  0  0  0  0  0  0  0  0  0  0
   -2.3313   -1.5000    0.0000 C   0  0  0  0  0  0  0  0  0  0  0  0
   -3.6304   -0.7500    0.0000 C   0  0  0  0  0  0  0  0  0  0  0  0
   -3.6304    0.7500    0.0000 N   0  0  0  0  0  0  0  0  0  0  0  0
   -2.3313    1.5000    0.0000 C   0  0  0  0  0  0  0  0  0  0  0  0
   -2.3313    3.0000    0.0000 N   0  0  0  0  0  0  0  0  0  0  0  0
   -1.0323    0.7500    0.0000 C   0  0  0  0  0  0  0  0  0  0  0  0
    0.3943    1.2135    0.0000 C   0  0  0  0  0  0  0  0  0  0  0  0
    1.2760    0.0000    0.0000 C   0  0  0  0  0  0  0  0  0  0  0  0
    0.3943   -1.2135    0.0000 S   0  0  0  0  0  0  0  0  0  0  0  0
   -1.0323   -0.7500    0.0000 C   0  0  0  0  0  0  0  0  0  0  0  0
    0.8578    2.6401    0.0000 C   0  0  0  0  0  0  0  0  0  0  0  0
    2.3250    2.9520    0.0000 C   0  0  0  0  0  0  0  0  0  0  0  0
    2.7886    4.3786    0.0000 C   0  0  0  0  0  0  0  0  0  0  0  0
    1.7849    5.4933    0.0000 C   0  0  0  0  0  0  0  0  0  0  0  0
    2.2484    6.9199    0.0000 N   0  0  0  0  0  0  0  0  0  0  0  0
    3.7156    7.2317    0.0000 C   0  0  0  0  0  0  0  0  0  0  0  0
    4.7193    6.1170    0.0000 O   0  0  0  0  0  0  0  0  0  0  0  0
    4.1791    8.6583    0.0000 N   0  0  0  0  0  0  0  0  0  0  0  0
    5.6464    8.9702    0.0000 C   0  0  0  0  0  0  0  0  0  0  0  0
    6.6501    7.8555    0.0000 C   0  0  0  0  0  0  0  0  0  0  0  0
    8.1173    8.1673    0.0000 C   0  0  0  0  0  0  0  0  0  0  0  0
    8.5808    9.5939    0.0000 C   0  0  0  0  0  0  0  0  0  0  0  0
   10.0480    9.9058    0.0000 O   0  0  0  0  0  0  0  0  0  0  0  0
   11.0517    8.7911    0.0000 C   0  0  0  0  0  0  0  0  0  0  0  0
   12.5190    9.1029    0.0000 F   0  0  0  0  0  0  0  0  0  0  0  0
   10.5882    7.3645    0.0000 F   0  0  0  0  0  0  0  0  0  0  0  0
    7.5771   10.7086    0.0000 C   0  0  0  0  0  0  0  0  0  0  0  0
    6.1099   10.3968    0.0000 C   0  0  0  0  0  0  0  0  0  0  0  0
    0.3177    5.1814    0.0000 C   0  0  0  0  0  0  0  0  0  0  0  0
   -0.1459    3.7548    0.0000 C   0  0  0  0  0  0  0  0  0  0  0  0
  1  2  1  0
  2  3  1  0
  3  4  2  0
  4  5  1  0
  5  6  2  0
  4  7  1  0
  7  8  2  0
  8  9  1  0
  9 10  2  0
 10 11  1  0
 10 12  1  0
 12 13  1  0
 13 14  2  0
 14 15  1  0
 15 16  1  0
 13 17  1  0
 17 18  2  0
 18 19  1  0
 19 20  2  0
 20 21  1  0
 21 22  1  0
 22 23  2  0
 22 24  1  0
 24 25  1  0
 25 26  2  0
 26 27  1  0
 27 28  2  0
 28 29  1  0
 29 30  1  0
 30 31  1  0
 30 32  1  0
 28 33  1  0
 33 34  2  0
 20 35  1  0
 35 36  2  0
  6  2  1  0
 16  7  1  0
 16 12  2  0
 36 17  1  0
 34 25  1  0
M  END
>  <Molecule>  (301) 
CHEMBL1988387

>  <Standard Type>  (301) 
Ki

>  <Standard Relation>  (301) 
=

>  <Standard Value>  (301) 
158.49

>  <Standard Units>  (301) 
nM

>  <pChEMBL Value>  (301) 
6.8

>  <Comment>  (301) 
active

>  <Compound Key>  (301) 
SID103904292

>  <Assay>  (301) 
CHEMBL1963742

>  <Assay Description>  (301) 
PUBCHEM_BIOASSAY: Navigating the Kinome. (Class of assay: other) Panel member name: JAK3

>  <BAO Format>  (301) 
assay format

>  <Target>  (301) 
CHEMBL2148

>  <Target Pref. Name>  (301) 
Tyrosine-protein kinase JAK3

>  <Target Organism>  (301) 
Homo sapiens

>  <Target Type>  (301) 
SINGLE PROTEIN

>  <Document>  (301) 
CHEMBL1201862

>  <Source>  (301) 
PubChem BioAssays

>  <Max Phase>  (301) 
0

>  <#Ro5 Violations>  (301) 
2

>  <Molecular Weight>  (301) 
506.54

>  <Ligand Efficiency BEI>  (301) 
nan

>  <Ligand Efficiency LE>  (301) 
nan

>  <Ligand Efficiency LLE>  (301) 
nan

>  <Ligand Efficiency SEI>  (301) 
nan

>  <ALogP>  (301) 
6.19

>  <Assay Organism>  (301) 
nan

>  <Assay Tissue ChEMBL ID>  (301) 
nan

>  <Assay Tissue Name>  (301) 
nan

>  <Assay Cell Type>  (301) 
nan

>  <Assay Subcellular Fraction>  (301) 
nan

>  <Organism Tax ID>  (301) 
9606

>  <BAO Format ID>  (301) 
BAO_0000019

>  <Published Type>  (301) 
nan

>  <Published Relation>  (301) 
nan

>  <Published Value>  (301) 
nan

>  <Published Units>  (301) 
nan

>  <Canonical Smiles>  (301) 
Cn1cc(cn1)c2cnc(N)c3c(csc23)c4ccc(NC(=O)Nc5ccc(OC(F)F)cc5)cc4

>  <Data Validity Comment>  (301) 
nan

>  <Document Journal>  (301) 
nan

>  <Document Year>  (301) 
nan

>  <SRC ID>  (301) 
7

>  <UO Units>  (301) 
UO_0000065

>  <Potential Duplicate>  (301) 
False

>  <Class>  (301) 
1

$$$$

     RDKit          2D

 31 33  0  0  0  0  0  0  0  0999 V2000
   15.2114    3.2661    0.0000 O   0  0  0  0  0  0  0  0  0  0  0  0
   13.7849    2.8025    0.0000 C   0  0  0  0  0  0  0  0  0  0  0  0
   12.6701    3.8062    0.0000 C   0  0  0  0  0  0  0  0  0  0  0  0
   11.2436    3.3427    0.0000 C   0  0  0  0  0  0  0  0  0  0  0  0
   10.1288    4.3464    0.0000 O   0  0  0  0  0  0  0  0  0  0  0  0
    8.7023    3.8829    0.0000 C   0  0  0  0  0  0  0  0  0  0  0  0
    8.3904    2.4157    0.0000 C   0  0  0  0  0  0  0  0  0  0  0  0
    6.9638    1.9521    0.0000 C   0  0  0  0  0  0  0  0  0  0  0  0
    7.5739    0.5818    0.0000 O   0  0  0  0  0  0  0  0  0  0  0  0
    7.5739   -0.9182    0.0000 C   0  0  0  0  0  0  0  0  0  0  0  0
    6.9638   -2.2885    0.0000 C   0  0  0  0  0  0  0  0  0  0  0  0
    5.8491   -3.2922    0.0000 C   0  0  0  0  0  0  0  0  0  0  0  0
    4.4225   -3.7557    0.0000 C   0  0  0  0  0  0  0  0  0  0  0  0
    2.9307   -3.5989    0.0000 C   0  0  0  0  0  0  0  0  0  0  0  0
    1.6317   -2.8489    0.0000 O   0  0  0  0  0  0  0  0  0  0  0  0
    0.7500   -1.2990    0.0000 C   0  0  0  0  0  0  0  0  0  0  0  0
    1.5000    0.0000    0.0000 N   0  0  0  0  0  0  0  0  0  0  0  0
    0.7500    1.2990    0.0000 C   0  0  0  0  0  0  0  0  0  0  0  0
    1.6317    2.5126    0.0000 N   0  0  0  0  0  0  0  0  0  0  0  0
    2.9307    3.2626    0.0000 C   0  0  0  0  0  0  0  0  0  0  0  0
    2.4672    4.6891    0.0000 O   0  0  0  0  0  0  0  0  0  0  0  0
    4.4225    3.4194    0.0000 N   0  0  0  0  0  0  0  0  0  0  0  0
    5.8491    2.9558    0.0000 C   0  0  0  0  0  0  0  0  0  0  0  0
    6.1610    4.4231    0.0000 C   0  0  0  0  0  0  0  0  0  0  0  0
    7.5875    4.8866    0.0000 C   0  0  0  0  0  0  0  0  0  0  0  0
    7.8994    6.3538    0.0000 Cl  0  0  0  0  0  0  0  0  0  0  0  0
   -0.7500    1.2990    0.0000 C   0  0  0  0  0  0  0  0  0  0  0  0
   -1.5000    0.0000    0.0000 N   0  0  0  0  0  0  0  0  0  0  0  0
   -0.7500   -1.2990    0.0000 C   0  0  0  0  0  0  0  0  0  0  0  0
   -1.5000   -2.5981    0.0000 C   0  0  0  0  0  0  0  0  0  0  0  0
   -2.2500   -3.8971    0.0000 N   0  0  0  0  0  0  0  0  0  0  0  0
  1  2  1  0
  2  3  1  0
  3  4  1  0
  4  5  1  0
  5  6  1  0
  6  7  2  0
  7  8  1  0
  8  9  1  0
  9 10  1  0
 10 11  1  0
 11 12  1  0
 12 13  1  0
 13 14  1  0
 14 15  1  0
 15 16  1  0
 16 17  1  0
 17 18  2  0
 18 19  1  0
 19 20  1  0
 20 21  2  0
 20 22  1  0
 22 23  1  0
 23 24  1  0
 24 25  2  0
 25 26  1  0
 18 27  1  0
 27 28  2  0
 28 29  1  0
 29 30  1  0
 30 31  3  0
 25  6  1  0
 23  8  2  0
 29 16  2  0
M  END
>  <Molecule>  (302) 
CHEMBL373598

>  <Standard Type>  (302) 
Ki

>  <Standard Relation>  (302) 
>

>  <Standard Value>  (302) 
1584.89

>  <Standard Units>  (302) 
nM

>  <pChEMBL Value>  (302) 
nan

>  <Comment>  (302) 
inactive

>  <Compound Key>  (302) 
SID103905148

>  <Assay>  (302) 
CHEMBL1963742

>  <Assay Description>  (302) 
PUBCHEM_BIOASSAY: Navigating the Kinome. (Class of assay: other) Panel member name: JAK3

>  <BAO Format>  (302) 
assay format

>  <Target>  (302) 
CHEMBL2148

>  <Target Pref. Name>  (302) 
Tyrosine-protein kinase JAK3

>  <Target Organism>  (302) 
Homo sapiens

>  <Target Type>  (302) 
SINGLE PROTEIN

>  <Document>  (302) 
CHEMBL1201862

>  <Source>  (302) 
PubChem BioAssays

>  <Max Phase>  (302) 
0

>  <#Ro5 Violations>  (302) 
0

>  <Molecular Weight>  (302) 
447.88

>  <Ligand Efficiency BEI>  (302) 
nan

>  <Ligand Efficiency LE>  (302) 
nan

>  <Ligand Efficiency LLE>  (302) 
nan

>  <Ligand Efficiency SEI>  (302) 
nan

>  <ALogP>  (302) 
3.35

>  <Assay Organism>  (302) 
nan

>  <Assay Tissue ChEMBL ID>  (302) 
nan

>  <Assay Tissue Name>  (302) 
nan

>  <Assay Cell Type>  (302) 
nan

>  <Assay Subcellular Fraction>  (302) 
nan

>  <Organism Tax ID>  (302) 
9606

>  <BAO Format ID>  (302) 
BAO_0000019

>  <Published Type>  (302) 
nan

>  <Published Relation>  (302) 
nan

>  <Published Value>  (302) 
nan

>  <Published Units>  (302) 
nan

>  <Canonical Smiles>  (302) 
OCCCOc1cc2OCCCCCOc3nc(NC(=O)Nc2cc1Cl)cnc3C#N

>  <Data Validity Comment>  (302) 
nan

>  <Document Journal>  (302) 
nan

>  <Document Year>  (302) 
nan

>  <SRC ID>  (302) 
7

>  <UO Units>  (302) 
UO_0000065

>  <Potential Duplicate>  (302) 
False

>  <Class>  (302) 
0

$$$$

     RDKit          2D

 31 35  0  0  0  0  0  0  0  0999 V2000
   -5.7161    3.2791    0.0000 O   0  0  0  0  0  0  0  0  0  0  0  0
   -4.2489    2.9672    0.0000 C   0  0  0  0  0  0  0  0  0  0  0  0
   -3.1342    3.9709    0.0000 N   0  0  0  0  0  0  0  0  0  0  0  0
   -1.8351    3.2209    0.0000 C   0  0  0  0  0  0  0  0  0  0  0  0
   -0.4086    3.6844    0.0000 C   0  0  0  0  0  0  0  0  0  0  0  0
    0.7062    2.6807    0.0000 C   0  0  0  0  0  0  0  0  0  0  0  0
    0.3943    1.2135    0.0000 C   0  0  0  0  0  0  0  0  0  0  0  0
    1.2760    0.0000    0.0000 N   0  0  0  0  0  0  0  0  0  0  0  0
    0.3943   -1.2135    0.0000 C   0  0  0  0  0  0  0  0  0  0  0  0
   -1.0323   -0.7500    0.0000 S   0  0  0  0  0  0  0  0  0  0  0  0
   -1.0323    0.7500    0.0000 C   0  0  0  0  0  0  0  0  0  0  0  0
   -2.1470    1.7537    0.0000 C   0  0  0  0  0  0  0  0  0  0  0  0
   -3.6388    1.5969    0.0000 C   0  0  0  0  0  0  0  0  0  0  0  0
   -4.3888    0.2979    0.0000 C   0  0  0  0  0  0  0  0  0  0  0  0
   -5.8888    0.2979    0.0000 N   0  0  0  0  0  0  0  0  0  0  0  0
   -6.6388   -1.0012    0.0000 C   0  0  0  0  0  0  0  0  0  0  0  0
   -8.1388   -1.0012    0.0000 C   0  0  0  0  0  0  0  0  0  0  0  0
   -8.8888   -2.3002    0.0000 C   0  0  0  0  0  0  0  0  0  0  0  0
   -8.1388   -3.5992    0.0000 C   0  0  0  0  0  0  0  0  0  0  0  0
   -6.6388   -3.5992    0.0000 C   0  0  0  0  0  0  0  0  0  0  0  0
   -5.8888   -2.3002    0.0000 C   0  0  0  0  0  0  0  0  0  0  0  0
   -8.8888   -4.8983    0.0000 S   0  0  0  0  0  0  0  0  0  0  0  0
  -10.1878   -4.1483    0.0000 O   0  0  0  0  0  0  0  0  0  0  0  0
   -7.5897   -5.6483    0.0000 O   0  0  0  0  0  0  0  0  0  0  0  0
   -9.6388   -6.1973    0.0000 N   0  0  0  0  0  0  0  0  0  0  0  0
   -8.8888   -7.4964    0.0000 C   0  0  0  0  0  0  0  0  0  0  0  0
   -9.6388   -8.7954    0.0000 C   0  0  0  0  0  0  0  0  0  0  0  0
   -8.8888  -10.0944    0.0000 C   0  0  0  0  0  0  0  0  0  0  0  0
   -7.3888  -10.0944    0.0000 C   0  0  0  0  0  0  0  0  0  0  0  0
   -6.6388   -8.7954    0.0000 C   0  0  0  0  0  0  0  0  0  0  0  0
   -7.3888   -7.4964    0.0000 N   0  0  0  0  0  0  0  0  0  0  0  0
  1  2  2  0
  2  3  1  0
  3  4  1  0
  4  5  2  0
  5  6  1  0
  6  7  2  0
  7  8  1  0
  8  9  2  0
  9 10  1  0
 10 11  1  0
 11 12  2  0
 12 13  1  0
 13 14  2  3
 14 15  1  0
 15 16  1  0
 16 17  2  0
 17 18  1  0
 18 19  2  0
 19 20  1  0
 20 21  2  0
 19 22  1  0
 22 23  2  0
 22 24  2  0
 22 25  1  0
 25 26  1  0
 26 27  2  0
 27 28  1  0
 28 29  2  0
 29 30  1  0
 30 31  2  0
 13  2  1  0
 12  4  1  0
 11  7  1  0
 21 16  1  0
 31 26  1  0
M  END
>  <Molecule>  (303) 
CHEMBL1973540

>  <Standard Type>  (303) 
Ki

>  <Standard Relation>  (303) 
=

>  <Standard Value>  (303) 
25.12

>  <Standard Units>  (303) 
nM

>  <pChEMBL Value>  (303) 
7.6

>  <Comment>  (303) 
active

>  <Compound Key>  (303) 
SID103904953

>  <Assay>  (303) 
CHEMBL1963742

>  <Assay Description>  (303) 
PUBCHEM_BIOASSAY: Navigating the Kinome. (Class of assay: other) Panel member name: JAK3

>  <BAO Format>  (303) 
assay format

>  <Target>  (303) 
CHEMBL2148

>  <Target Pref. Name>  (303) 
Tyrosine-protein kinase JAK3

>  <Target Organism>  (303) 
Homo sapiens

>  <Target Type>  (303) 
SINGLE PROTEIN

>  <Document>  (303) 
CHEMBL1201862

>  <Source>  (303) 
PubChem BioAssays

>  <Max Phase>  (303) 
0

>  <#Ro5 Violations>  (303) 
0

>  <Molecular Weight>  (303) 
449.52

>  <Ligand Efficiency BEI>  (303) 
nan

>  <Ligand Efficiency LE>  (303) 
nan

>  <Ligand Efficiency LLE>  (303) 
nan

>  <Ligand Efficiency SEI>  (303) 
nan

>  <ALogP>  (303) 
3.9

>  <Assay Organism>  (303) 
nan

>  <Assay Tissue ChEMBL ID>  (303) 
nan

>  <Assay Tissue Name>  (303) 
nan

>  <Assay Cell Type>  (303) 
nan

>  <Assay Subcellular Fraction>  (303) 
nan

>  <Organism Tax ID>  (303) 
9606

>  <BAO Format ID>  (303) 
BAO_0000019

>  <Published Type>  (303) 
nan

>  <Published Relation>  (303) 
nan

>  <Published Value>  (303) 
nan

>  <Published Units>  (303) 
nan

>  <Canonical Smiles>  (303) 
O=C1Nc2ccc3ncsc3c2C1=CNc4ccc(cc4)S(=O)(=O)Nc5ccccn5

>  <Data Validity Comment>  (303) 
nan

>  <Document Journal>  (303) 
nan

>  <Document Year>  (303) 
nan

>  <SRC ID>  (303) 
7

>  <UO Units>  (303) 
UO_0000065

>  <Potential Duplicate>  (303) 
False

>  <Class>  (303) 
1

$$$$

     RDKit          2D

 30 33  0  0  0  0  0  0  0  0999 V2000
   -6.0000   -7.7942    0.0000 C   0  0  0  0  0  0  0  0  0  0  0  0
   -5.2500   -6.4952    0.0000 O   0  0  0  0  0  0  0  0  0  0  0  0
   -6.0000   -5.1962    0.0000 C   0  0  0  0  0  0  0  0  0  0  0  0
   -7.5000   -5.1962    0.0000 C   0  0  0  0  0  0  0  0  0  0  0  0
   -8.2500   -3.8971    0.0000 C   0  0  0  0  0  0  0  0  0  0  0  0
   -7.5000   -2.5981    0.0000 C   0  0  0  0  0  0  0  0  0  0  0  0
   -6.0000   -2.5981    0.0000 C   0  0  0  0  0  0  0  0  0  0  0  0
   -5.2500   -1.2990    0.0000 O   0  0  0  0  0  0  0  0  0  0  0  0
   -6.0000    0.0000    0.0000 C   0  0  0  0  0  0  0  0  0  0  0  0
   -5.2500   -3.8971    0.0000 C   0  0  0  0  0  0  0  0  0  0  0  0
   -3.7500   -3.8971    0.0000 C   0  0  0  0  0  0  0  0  0  0  0  0
   -3.0000   -2.5981    0.0000 N   0  0  0  0  0  0  0  0  0  0  0  0
   -1.5000   -2.5981    0.0000 C   0  0  0  0  0  0  0  0  0  0  0  0
   -0.7500   -3.8971    0.0000 N   0  0  0  0  0  0  0  0  0  0  0  0
    0.7500   -3.8971    0.0000 C   0  0  0  0  0  0  0  0  0  0  0  0
    1.5000   -5.1962    0.0000 N   0  0  0  0  0  0  0  0  0  0  0  0
    0.7500   -6.4952    0.0000 C   0  0  0  0  0  0  0  0  0  0  0  0
   -0.7500   -6.4952    0.0000 C   0  0  0  0  0  0  0  0  0  0  0  0
   -1.5000   -7.7942    0.0000 C   0  0  0  0  0  0  0  0  0  0  0  0
   -0.7500   -9.0933    0.0000 C   0  0  0  0  0  0  0  0  0  0  0  0
    0.7500   -9.0933    0.0000 C   0  0  0  0  0  0  0  0  0  0  0  0
    1.5000   -7.7942    0.0000 C   0  0  0  0  0  0  0  0  0  0  0  0
    1.5000   -2.5981    0.0000 N   0  0  0  0  0  0  0  0  0  0  0  0
    0.7500   -1.2990    0.0000 C   0  0  0  0  0  0  0  0  0  0  0  0
    1.5000    0.0000    0.0000 C   0  0  0  0  0  0  0  0  0  0  0  0
    0.7500    1.2990    0.0000 C   0  0  0  0  0  0  0  0  0  0  0  0
   -0.7500    1.2990    0.0000 C   0  0  0  0  0  0  0  0  0  0  0  0
   -1.5000    2.5981    0.0000 Cl  0  0  0  0  0  0  0  0  0  0  0  0
   -1.5000    0.0000    0.0000 C   0  0  0  0  0  0  0  0  0  0  0  0
   -0.7500   -1.2990    0.0000 C   0  0  0  0  0  0  0  0  0  0  0  0
  1  2  1  0
  2  3  1  0
  3  4  2  0
  4  5  1  0
  5  6  2  0
  6  7  1  0
  7  8  1  0
  8  9  1  0
  7 10  2  0
 10 11  1  0
 11 12  1  0
 12 13  1  0
 13 14  2  0
 14 15  1  0
 15 16  1  0
 16 17  1  0
 17 18  1  0
 18 19  1  0
 19 20  1  0
 20 21  1  0
 21 22  1  0
 15 23  2  0
 23 24  1  0
 24 25  2  0
 25 26  1  0
 26 27  2  0
 27 28  1  0
 27 29  1  0
 29 30  2  0
 10  3  1  0
 30 13  1  0
 22 17  1  0
 30 24  1  0
M  END
>  <Molecule>  (304) 
CHEMBL1996646

>  <Standard Type>  (304) 
Ki

>  <Standard Relation>  (304) 
=

>  <Standard Value>  (304) 
1995.26

>  <Standard Units>  (304) 
nM

>  <pChEMBL Value>  (304) 
5.7

>  <Comment>  (304) 
active

>  <Compound Key>  (304) 
SID103905406

>  <Assay>  (304) 
CHEMBL1963742

>  <Assay Description>  (304) 
PUBCHEM_BIOASSAY: Navigating the Kinome. (Class of assay: other) Panel member name: JAK3

>  <BAO Format>  (304) 
assay format

>  <Target>  (304) 
CHEMBL2148

>  <Target Pref. Name>  (304) 
Tyrosine-protein kinase JAK3

>  <Target Organism>  (304) 
Homo sapiens

>  <Target Type>  (304) 
SINGLE PROTEIN

>  <Document>  (304) 
CHEMBL1201862

>  <Source>  (304) 
PubChem BioAssays

>  <Max Phase>  (304) 
0

>  <#Ro5 Violations>  (304) 
1

>  <Molecular Weight>  (304) 
426.95

>  <Ligand Efficiency BEI>  (304) 
nan

>  <Ligand Efficiency LE>  (304) 
nan

>  <Ligand Efficiency LLE>  (304) 
nan

>  <Ligand Efficiency SEI>  (304) 
nan

>  <ALogP>  (304) 
5.66

>  <Assay Organism>  (304) 
nan

>  <Assay Tissue ChEMBL ID>  (304) 
nan

>  <Assay Tissue Name>  (304) 
nan

>  <Assay Cell Type>  (304) 
nan

>  <Assay Subcellular Fraction>  (304) 
nan

>  <Organism Tax ID>  (304) 
9606

>  <BAO Format ID>  (304) 
BAO_0000019

>  <Published Type>  (304) 
nan

>  <Published Relation>  (304) 
nan

>  <Published Value>  (304) 
nan

>  <Published Units>  (304) 
nan

>  <Canonical Smiles>  (304) 
COc1cccc(OC)c1CNc2nc(NC3CCCCC3)nc4ccc(Cl)cc24

>  <Data Validity Comment>  (304) 
nan

>  <Document Journal>  (304) 
nan

>  <Document Year>  (304) 
nan

>  <SRC ID>  (304) 
7

>  <UO Units>  (304) 
UO_0000065

>  <Potential Duplicate>  (304) 
False

>  <Class>  (304) 
1

$$$$

     RDKit          2D

 18 20  0  0  0  0  0  0  0  0999 V2000
    3.0000    0.0000    0.0000 Br  0  0  0  0  0  0  0  0  0  0  0  0
    1.5000    0.0000    0.0000 C   0  0  0  0  0  0  0  0  0  0  0  0
    0.7500   -1.2990    0.0000 C   0  0  0  0  0  0  0  0  0  0  0  0
   -0.7500   -1.2990    0.0000 C   0  0  0  0  0  0  0  0  0  0  0  0
   -1.5000    0.0000    0.0000 C   0  0  0  0  0  0  0  0  0  0  0  0
   -2.9672    0.3119    0.0000 N   0  0  0  0  0  0  0  0  0  0  0  0
   -3.1240    1.8037    0.0000 C   0  0  0  0  0  0  0  0  0  0  0  0
   -4.4231    2.5537    0.0000 O   0  0  0  0  0  0  0  0  0  0  0  0
   -1.7537    2.4138    0.0000 C   0  0  0  0  0  0  0  0  0  0  0  0
   -1.4418    3.8810    0.0000 C   0  0  0  0  0  0  0  0  0  0  0  0
   -2.4455    4.9957    0.0000 S   0  0  0  0  0  0  0  0  0  0  0  0
   -1.6955    6.2947    0.0000 C   0  0  0  0  0  0  0  0  0  0  0  0
   -2.3056    7.6651    0.0000 S   0  0  0  0  0  0  0  0  0  0  0  0
   -0.2283    5.9829    0.0000 N   0  0  0  0  0  0  0  0  0  0  0  0
   -0.0715    4.4911    0.0000 C   0  0  0  0  0  0  0  0  0  0  0  0
    1.2275    3.7411    0.0000 O   0  0  0  0  0  0  0  0  0  0  0  0
   -0.7500    1.2990    0.0000 C   0  0  0  0  0  0  0  0  0  0  0  0
    0.7500    1.2990    0.0000 C   0  0  0  0  0  0  0  0  0  0  0  0
  1  2  1  0
  2  3  2  0
  3  4  1  0
  4  5  2  0
  5  6  1  0
  6  7  1  0
  7  8  2  0
  7  9  1  0
  9 10  2  3
 10 11  1  0
 11 12  1  0
 12 13  2  0
 12 14  1  0
 14 15  1  0
 15 16  2  0
  9 17  1  0
 17 18  2  0
 18  2  1  0
 17  5  1  0
 15 10  1  0
M  END
>  <Molecule>  (305) 
CHEMBL2001920

>  <Standard Type>  (305) 
Ki

>  <Standard Relation>  (305) 
>

>  <Standard Value>  (305) 
1584.89

>  <Standard Units>  (305) 
nM

>  <pChEMBL Value>  (305) 
nan

>  <Comment>  (305) 
inactive

>  <Compound Key>  (305) 
SID103905481

>  <Assay>  (305) 
CHEMBL1963742

>  <Assay Description>  (305) 
PUBCHEM_BIOASSAY: Navigating the Kinome. (Class of assay: other) Panel member name: JAK3

>  <BAO Format>  (305) 
assay format

>  <Target>  (305) 
CHEMBL2148

>  <Target Pref. Name>  (305) 
Tyrosine-protein kinase JAK3

>  <Target Organism>  (305) 
Homo sapiens

>  <Target Type>  (305) 
SINGLE PROTEIN

>  <Document>  (305) 
CHEMBL1201862

>  <Source>  (305) 
PubChem BioAssays

>  <Max Phase>  (305) 
0

>  <#Ro5 Violations>  (305) 
0

>  <Molecular Weight>  (305) 
341.21

>  <Ligand Efficiency BEI>  (305) 
nan

>  <Ligand Efficiency LE>  (305) 
nan

>  <Ligand Efficiency LLE>  (305) 
nan

>  <Ligand Efficiency SEI>  (305) 
nan

>  <ALogP>  (305) 
2.26

>  <Assay Organism>  (305) 
nan

>  <Assay Tissue ChEMBL ID>  (305) 
nan

>  <Assay Tissue Name>  (305) 
nan

>  <Assay Cell Type>  (305) 
nan

>  <Assay Subcellular Fraction>  (305) 
nan

>  <Organism Tax ID>  (305) 
9606

>  <BAO Format ID>  (305) 
BAO_0000019

>  <Published Type>  (305) 
nan

>  <Published Relation>  (305) 
nan

>  <Published Value>  (305) 
nan

>  <Published Units>  (305) 
nan

>  <Canonical Smiles>  (305) 
Brc1ccc2NC(=O)C(=C3SC(=S)NC3=O)c2c1

>  <Data Validity Comment>  (305) 
nan

>  <Document Journal>  (305) 
nan

>  <Document Year>  (305) 
nan

>  <SRC ID>  (305) 
7

>  <UO Units>  (305) 
UO_0000065

>  <Potential Duplicate>  (305) 
False

>  <Class>  (305) 
0

$$$$

     RDKit          2D

 29 32  0  0  0  0  0  0  0  0999 V2000
    9.5281   -1.3055    0.0000 C   0  0  0  0  0  0  0  0  0  0  0  0
    8.3145   -2.1872    0.0000 O   0  0  0  0  0  0  0  0  0  0  0  0
    8.4713   -3.6789    0.0000 C   0  0  0  0  0  0  0  0  0  0  0  0
    9.8417   -4.2890    0.0000 C   0  0  0  0  0  0  0  0  0  0  0  0
    9.9984   -5.7808    0.0000 C   0  0  0  0  0  0  0  0  0  0  0  0
    8.7849   -6.6625    0.0000 C   0  0  0  0  0  0  0  0  0  0  0  0
    7.4146   -6.0524    0.0000 C   0  0  0  0  0  0  0  0  0  0  0  0
    7.2578   -4.5606    0.0000 C   0  0  0  0  0  0  0  0  0  0  0  0
    6.2011   -6.9341    0.0000 C   0  0  0  0  0  0  0  0  0  0  0  0
    6.3579   -8.4259    0.0000 C   0  0  0  0  0  0  0  0  0  0  0  0
    4.8308   -6.3240    0.0000 N   0  0  0  0  0  0  0  0  0  0  0  0
    4.6740   -4.8322    0.0000 C   0  0  0  0  0  0  0  0  0  0  0  0
    5.8875   -3.9505    0.0000 O   0  0  0  0  0  0  0  0  0  0  0  0
    3.3037   -4.2221    0.0000 C   0  0  0  0  0  0  0  0  0  0  0  0
    2.0046   -4.9721    0.0000 C   0  0  0  0  0  0  0  0  0  0  0  0
    0.8899   -3.9684    0.0000 C   0  0  0  0  0  0  0  0  0  0  0  0
   -0.5773   -4.2803    0.0000 C   0  0  0  0  0  0  0  0  0  0  0  0
    1.5000   -2.5981    0.0000 C   0  0  0  0  0  0  0  0  0  0  0  0
    2.9918   -2.7549    0.0000 S   0  0  0  0  0  0  0  0  0  0  0  0
    0.7500   -1.2990    0.0000 C   0  0  0  0  0  0  0  0  0  0  0  0
    1.5000    0.0000    0.0000 C   0  0  0  0  0  0  0  0  0  0  0  0
    0.7500    1.2990    0.0000 C   0  0  0  0  0  0  0  0  0  0  0  0
   -0.7500    1.2990    0.0000 C   0  0  0  0  0  0  0  0  0  0  0  0
   -1.7537    2.4138    0.0000 N   0  0  0  0  0  0  0  0  0  0  0  0
   -3.1240    1.8037    0.0000 N   0  0  0  0  0  0  0  0  0  0  0  0
   -2.9672    0.3119    0.0000 C   0  0  0  0  0  0  0  0  0  0  0  0
   -4.0819   -0.6918    0.0000 C   0  0  0  0  0  0  0  0  0  0  0  0
   -1.5000    0.0000    0.0000 C   0  0  0  0  0  0  0  0  0  0  0  0
   -0.7500   -1.2990    0.0000 C   0  0  0  0  0  0  0  0  0  0  0  0
  1  2  1  0
  2  3  1  0
  3  4  2  0
  4  5  1  0
  5  6  2  0
  6  7  1  0
  7  8  2  0
  7  9  1  0
  9 10  1  0
  9 11  1  0
 11 12  1  0
 12 13  2  0
 12 14  1  0
 14 15  2  0
 15 16  1  0
 16 17  1  0
 16 18  2  0
 18 19  1  0
 18 20  1  0
 20 21  2  0
 21 22  1  0
 22 23  2  0
 23 24  1  0
 24 25  1  0
 25 26  2  0
 26 27  1  0
 26 28  1  0
 28 29  2  0
  8  3  1  0
 19 14  1  0
 29 20  1  0
 28 23  1  0
M  END
>  <Molecule>  (306) 
CHEMBL1997534

>  <Standard Type>  (306) 
Ki

>  <Standard Relation>  (306) 
=

>  <Standard Value>  (306) 
1258.93

>  <Standard Units>  (306) 
nM

>  <pChEMBL Value>  (306) 
5.9

>  <Comment>  (306) 
active

>  <Compound Key>  (306) 
SID103904738

>  <Assay>  (306) 
CHEMBL1963742

>  <Assay Description>  (306) 
PUBCHEM_BIOASSAY: Navigating the Kinome. (Class of assay: other) Panel member name: JAK3

>  <BAO Format>  (306) 
assay format

>  <Target>  (306) 
CHEMBL2148

>  <Target Pref. Name>  (306) 
Tyrosine-protein kinase JAK3

>  <Target Organism>  (306) 
Homo sapiens

>  <Target Type>  (306) 
SINGLE PROTEIN

>  <Document>  (306) 
CHEMBL1201862

>  <Source>  (306) 
PubChem BioAssays

>  <Max Phase>  (306) 
0

>  <#Ro5 Violations>  (306) 
1

>  <Molecular Weight>  (306) 
405.52

>  <Ligand Efficiency BEI>  (306) 
nan

>  <Ligand Efficiency LE>  (306) 
nan

>  <Ligand Efficiency LLE>  (306) 
nan

>  <Ligand Efficiency SEI>  (306) 
nan

>  <ALogP>  (306) 
5.41

>  <Assay Organism>  (306) 
nan

>  <Assay Tissue ChEMBL ID>  (306) 
nan

>  <Assay Tissue Name>  (306) 
nan

>  <Assay Cell Type>  (306) 
nan

>  <Assay Subcellular Fraction>  (306) 
nan

>  <Organism Tax ID>  (306) 
9606

>  <BAO Format ID>  (306) 
BAO_0000019

>  <Published Type>  (306) 
nan

>  <Published Relation>  (306) 
nan

>  <Published Value>  (306) 
nan

>  <Published Units>  (306) 
nan

>  <Canonical Smiles>  (306) 
COc1cccc(c1)C(C)NC(=O)c2cc(C)c(s2)c3ccc4[nH]nc(C)c4c3

>  <Data Validity Comment>  (306) 
nan

>  <Document Journal>  (306) 
nan

>  <Document Year>  (306) 
nan

>  <SRC ID>  (306) 
7

>  <UO Units>  (306) 
UO_0000065

>  <Potential Duplicate>  (306) 
False

>  <Class>  (306) 
1

$$$$

     RDKit          2D

 29 32  0  0  0  0  0  0  0  0999 V2000
   -2.6401   -3.1891    0.0000 C   0  0  0  0  0  0  0  0  0  0  0  0
   -1.2135   -2.7256    0.0000 C   0  0  0  0  0  0  0  0  0  0  0  0
   -0.0000   -3.6073    0.0000 N   0  0  0  0  0  0  0  0  0  0  0  0
    1.2135   -2.7256    0.0000 N   0  0  0  0  0  0  0  0  0  0  0  0
    0.7500   -1.2990    0.0000 C   0  0  0  0  0  0  0  0  0  0  0  0
    1.5000    0.0000    0.0000 C   0  0  0  0  0  0  0  0  0  0  0  0
    0.7500    1.2990    0.0000 C   0  0  0  0  0  0  0  0  0  0  0  0
   -0.7500    1.2990    0.0000 C   0  0  0  0  0  0  0  0  0  0  0  0
   -1.5000    0.0000    0.0000 C   0  0  0  0  0  0  0  0  0  0  0  0
   -0.7500   -1.2990    0.0000 C   0  0  0  0  0  0  0  0  0  0  0  0
   -1.5000    2.5981    0.0000 C   0  0  0  0  0  0  0  0  0  0  0  0
   -0.7500    3.8971    0.0000 C   0  0  0  0  0  0  0  0  0  0  0  0
   -1.5000    5.1962    0.0000 N   0  0  0  0  0  0  0  0  0  0  0  0
   -3.0000    5.1962    0.0000 C   0  0  0  0  0  0  0  0  0  0  0  0
   -3.7500    3.8971    0.0000 C   0  0  0  0  0  0  0  0  0  0  0  0
   -5.2500    3.8971    0.0000 O   0  0  0  0  0  0  0  0  0  0  0  0
   -6.0000    5.1962    0.0000 C   0  0  0  0  0  0  0  0  0  0  0  0
   -7.5000    5.1962    0.0000 C   0  0  0  0  0  0  0  0  0  0  0  0
   -8.2500    3.8971    0.0000 N   0  0  0  0  0  0  0  0  0  0  0  0
   -8.2500    6.4952    0.0000 C   0  0  0  0  0  0  0  0  0  0  0  0
   -9.7500    6.4952    0.0000 C   0  0  0  0  0  0  0  0  0  0  0  0
  -10.5000    7.7942    0.0000 C   0  0  0  0  0  0  0  0  0  0  0  0
  -12.0000    7.7942    0.0000 C   0  0  0  0  0  0  0  0  0  0  0  0
  -12.7500    6.4952    0.0000 C   0  0  0  0  0  0  0  0  0  0  0  0
  -14.2500    6.4952    0.0000 Cl  0  0  0  0  0  0  0  0  0  0  0  0
  -12.0000    5.1962    0.0000 C   0  0  0  0  0  0  0  0  0  0  0  0
  -12.7500    3.8971    0.0000 Cl  0  0  0  0  0  0  0  0  0  0  0  0
  -10.5000    5.1962    0.0000 C   0  0  0  0  0  0  0  0  0  0  0  0
   -3.0000    2.5981    0.0000 C   0  0  0  0  0  0  0  0  0  0  0  0
  1  2  1  0
  2  3  2  0
  3  4  1  0
  4  5  1  0
  5  6  2  0
  6  7  1  0
  7  8  2  0
  8  9  1  0
  9 10  2  0
  8 11  1  0
 11 12  2  0
 12 13  1  0
 13 14  2  0
 14 15  1  0
 15 16  1  0
 16 17  1  0
 17 18  1  0
 18 19  1  0
 18 20  1  0
 20 21  1  0
 21 22  2  0
 22 23  1  0
 23 24  2  0
 24 25  1  0
 24 26  1  0
 26 27  1  0
 26 28  2  0
 15 29  2  0
 10  2  1  0
 10  5  1  0
 29 11  1  0
 28 21  1  0
M  END
>  <Molecule>  (307) 
CHEMBL1991063

>  <Standard Type>  (307) 
Ki

>  <Standard Relation>  (307) 
=

>  <Standard Value>  (307) 
1258.93

>  <Standard Units>  (307) 
nM

>  <pChEMBL Value>  (307) 
5.9

>  <Comment>  (307) 
active

>  <Compound Key>  (307) 
SID103904480

>  <Assay>  (307) 
CHEMBL1963742

>  <Assay Description>  (307) 
PUBCHEM_BIOASSAY: Navigating the Kinome. (Class of assay: other) Panel member name: JAK3

>  <BAO Format>  (307) 
assay format

>  <Target>  (307) 
CHEMBL2148

>  <Target Pref. Name>  (307) 
Tyrosine-protein kinase JAK3

>  <Target Organism>  (307) 
Homo sapiens

>  <Target Type>  (307) 
SINGLE PROTEIN

>  <Document>  (307) 
CHEMBL1201862

>  <Source>  (307) 
PubChem BioAssays

>  <Max Phase>  (307) 
0

>  <#Ro5 Violations>  (307) 
1

>  <Molecular Weight>  (307) 
427.34

>  <Ligand Efficiency BEI>  (307) 
nan

>  <Ligand Efficiency LE>  (307) 
nan

>  <Ligand Efficiency LLE>  (307) 
nan

>  <Ligand Efficiency SEI>  (307) 
nan

>  <ALogP>  (307) 
5.19

>  <Assay Organism>  (307) 
nan

>  <Assay Tissue ChEMBL ID>  (307) 
nan

>  <Assay Tissue Name>  (307) 
nan

>  <Assay Cell Type>  (307) 
nan

>  <Assay Subcellular Fraction>  (307) 
nan

>  <Organism Tax ID>  (307) 
9606

>  <BAO Format ID>  (307) 
BAO_0000019

>  <Published Type>  (307) 
nan

>  <Published Relation>  (307) 
nan

>  <Published Value>  (307) 
nan

>  <Published Units>  (307) 
nan

>  <Canonical Smiles>  (307) 
Cc1n[nH]c2ccc(cc12)c3cncc(OCC(N)Cc4ccc(Cl)c(Cl)c4)c3

>  <Data Validity Comment>  (307) 
nan

>  <Document Journal>  (307) 
nan

>  <Document Year>  (307) 
nan

>  <SRC ID>  (307) 
7

>  <UO Units>  (307) 
UO_0000065

>  <Potential Duplicate>  (307) 
False

>  <Class>  (307) 
1

$$$$

     RDKit          2D

 34 37  0  0  0  0  0  0  0  0999 V2000
  -13.5000  -10.3923    0.0000 N   0  0  0  0  0  0  0  0  0  0  0  0
  -12.7500   -9.0933    0.0000 C   0  0  0  0  0  0  0  0  0  0  0  0
  -13.5000   -7.7942    0.0000 C   0  0  0  0  0  0  0  0  0  0  0  0
  -12.7500   -6.4952    0.0000 C   0  0  0  0  0  0  0  0  0  0  0  0
  -13.5000   -5.1962    0.0000 N   0  0  0  0  0  0  0  0  0  0  0  0
  -12.7500   -3.8971    0.0000 S   0  0  0  0  0  0  0  0  0  0  0  0
  -14.0490   -3.1471    0.0000 O   0  0  0  0  0  0  0  0  0  0  0  0
  -11.4510   -4.6471    0.0000 O   0  0  0  0  0  0  0  0  0  0  0  0
  -12.0000   -2.5981    0.0000 C   0  0  0  0  0  0  0  0  0  0  0  0
  -12.7500   -1.2990    0.0000 C   0  0  0  0  0  0  0  0  0  0  0  0
  -12.0000    0.0000    0.0000 C   0  0  0  0  0  0  0  0  0  0  0  0
  -10.5000    0.0000    0.0000 C   0  0  0  0  0  0  0  0  0  0  0  0
   -9.7500   -1.2990    0.0000 C   0  0  0  0  0  0  0  0  0  0  0  0
  -10.5000   -2.5981    0.0000 C   0  0  0  0  0  0  0  0  0  0  0  0
   -8.2500   -1.2990    0.0000 C   0  0  0  0  0  0  0  0  0  0  0  0
   -7.5000    0.0000    0.0000 O   0  0  0  0  0  0  0  0  0  0  0  0
   -7.5000   -2.5981    0.0000 N   0  0  0  0  0  0  0  0  0  0  0  0
   -6.0000   -2.5981    0.0000 C   0  0  0  0  0  0  0  0  0  0  0  0
   -5.2500   -3.8971    0.0000 C   0  0  0  0  0  0  0  0  0  0  0  0
   -3.7500   -3.8971    0.0000 C   0  0  0  0  0  0  0  0  0  0  0  0
   -3.0000   -2.5981    0.0000 C   0  0  0  0  0  0  0  0  0  0  0  0
   -3.7500   -1.2990    0.0000 C   0  0  0  0  0  0  0  0  0  0  0  0
   -5.2500   -1.2990    0.0000 C   0  0  0  0  0  0  0  0  0  0  0  0
   -1.5000   -2.5981    0.0000 C   0  0  0  0  0  0  0  0  0  0  0  0
   -0.7500   -3.8971    0.0000 N   0  0  0  0  0  0  0  0  0  0  0  0
    0.7500   -3.8971    0.0000 N   0  0  0  0  0  0  0  0  0  0  0  0
    1.5000   -2.5981    0.0000 C   0  0  0  0  0  0  0  0  0  0  0  0
    3.0000   -2.5981    0.0000 O   0  0  0  0  0  0  0  0  0  0  0  0
    0.7500   -1.2990    0.0000 C   0  0  0  0  0  0  0  0  0  0  0  0
    1.5000    0.0000    0.0000 C   0  0  0  0  0  0  0  0  0  0  0  0
    0.7500    1.2990    0.0000 C   0  0  0  0  0  0  0  0  0  0  0  0
   -0.7500    1.2990    0.0000 C   0  0  0  0  0  0  0  0  0  0  0  0
   -1.5000    0.0000    0.0000 C   0  0  0  0  0  0  0  0  0  0  0  0
   -0.7500   -1.2990    0.0000 C   0  0  0  0  0  0  0  0  0  0  0  0
  1  2  1  0
  2  3  1  0
  3  4  1  0
  4  5  1  0
  5  6  1  0
  6  7  2  0
  6  8  2  0
  6  9  1  0
  9 10  2  0
 10 11  1  0
 11 12  2  0
 12 13  1  0
 13 14  2  0
 13 15  1  0
 15 16  2  0
 15 17  1  0
 17 18  1  0
 18 19  2  0
 19 20  1  0
 20 21  2  0
 21 22  1  0
 22 23  2  0
 21 24  1  0
 24 25  2  0
 25 26  1  0
 26 27  1  0
 27 28  2  0
 27 29  1  0
 29 30  2  0
 30 31  1  0
 31 32  2  0
 32 33  1  0
 33 34  2  0
 14  9  1  0
 23 18  1  0
 34 24  1  0
 34 29  1  0
M  END
>  <Molecule>  (308) 
CHEMBL1966279

>  <Standard Type>  (308) 
Ki

>  <Standard Relation>  (308) 
>

>  <Standard Value>  (308) 
1584.89

>  <Standard Units>  (308) 
nM

>  <pChEMBL Value>  (308) 
nan

>  <Comment>  (308) 
inactive

>  <Compound Key>  (308) 
SID103905097

>  <Assay>  (308) 
CHEMBL1963742

>  <Assay Description>  (308) 
PUBCHEM_BIOASSAY: Navigating the Kinome. (Class of assay: other) Panel member name: JAK3

>  <BAO Format>  (308) 
assay format

>  <Target>  (308) 
CHEMBL2148

>  <Target Pref. Name>  (308) 
Tyrosine-protein kinase JAK3

>  <Target Organism>  (308) 
Homo sapiens

>  <Target Type>  (308) 
SINGLE PROTEIN

>  <Document>  (308) 
CHEMBL1201862

>  <Source>  (308) 
PubChem BioAssays

>  <Max Phase>  (308) 
0

>  <#Ro5 Violations>  (308) 
0

>  <Molecular Weight>  (308) 
477.55

>  <Ligand Efficiency BEI>  (308) 
nan

>  <Ligand Efficiency LE>  (308) 
nan

>  <Ligand Efficiency LLE>  (308) 
nan

>  <Ligand Efficiency SEI>  (308) 
nan

>  <ALogP>  (308) 
2.47

>  <Assay Organism>  (308) 
nan

>  <Assay Tissue ChEMBL ID>  (308) 
nan

>  <Assay Tissue Name>  (308) 
nan

>  <Assay Cell Type>  (308) 
nan

>  <Assay Subcellular Fraction>  (308) 
nan

>  <Organism Tax ID>  (308) 
9606

>  <BAO Format ID>  (308) 
BAO_0000019

>  <Published Type>  (308) 
nan

>  <Published Relation>  (308) 
nan

>  <Published Value>  (308) 
nan

>  <Published Units>  (308) 
nan

>  <Canonical Smiles>  (308) 
NCCCNS(=O)(=O)c1cccc(c1)C(=O)Nc2ccc(cc2)C3=NNC(=O)c4ccccc34

>  <Data Validity Comment>  (308) 
nan

>  <Document Journal>  (308) 
nan

>  <Document Year>  (308) 
nan

>  <SRC ID>  (308) 
7

>  <UO Units>  (308) 
UO_0000065

>  <Potential Duplicate>  (308) 
False

>  <Class>  (308) 
0

$$$$

     RDKit          2D

 35 40  0  0  0  0  0  0  0  0999 V2000
   -7.4799   -6.0803    0.0000 C   0  0  0  0  0  0  0  0  0  0  0  0
   -6.0175   -5.7465    0.0000 N   0  0  0  0  0  0  0  0  0  0  0  0
   -5.5753   -4.3132    0.0000 C   0  0  0  0  0  0  0  0  0  0  0  0
   -4.9972   -6.8461    0.0000 C   0  0  0  0  0  0  0  0  0  0  0  0
   -3.5348   -6.5123    0.0000 C   0  0  0  0  0  0  0  0  0  0  0  0
   -3.5348   -5.0123    0.0000 C   0  0  0  0  0  0  0  0  0  0  0  0
   -2.8840   -3.6609    0.0000 C   0  0  0  0  0  0  0  0  0  0  0  0
   -1.2135   -2.7256    0.0000 N   0  0  0  0  0  0  0  0  0  0  0  0
    0.0000   -3.6073    0.0000 C   0  0  0  0  0  0  0  0  0  0  0  0
    1.2135   -2.7256    0.0000 C   0  0  0  0  0  0  0  0  0  0  0  0
    2.3863   -3.6609    0.0000 C   0  0  0  0  0  0  0  0  0  0  0  0
    3.0371   -5.0123    0.0000 C   0  0  0  0  0  0  0  0  0  0  0  0
    4.5235   -4.8110    0.0000 C   0  0  0  0  0  0  0  0  0  0  0  0
    5.5601   -5.8952    0.0000 O   0  0  0  0  0  0  0  0  0  0  0  0
    4.7914   -3.3351    0.0000 N   0  0  0  0  0  0  0  0  0  0  0  0
    3.4705   -2.6243    0.0000 C   0  0  0  0  0  0  0  0  0  0  0  0
    3.2691   -1.1378    0.0000 O   0  0  0  0  0  0  0  0  0  0  0  0
    3.0371   -6.5123    0.0000 C   0  0  0  0  0  0  0  0  0  0  0  0
    2.3863   -7.8638    0.0000 C   0  0  0  0  0  0  0  0  0  0  0  0
    1.2135   -8.7990    0.0000 N   0  0  0  0  0  0  0  0  0  0  0  0
   -0.2489   -9.1328    0.0000 C   0  0  0  0  0  0  0  0  0  0  0  0
   -1.7113   -8.7990    0.0000 C   0  0  0  0  0  0  0  0  0  0  0  0
   -2.8840   -7.8638    0.0000 O   0  0  0  0  0  0  0  0  0  0  0  0
    2.6179   -9.3261    0.0000 C   0  0  0  0  0  0  0  0  0  0  0  0
    3.1659  -10.7224    0.0000 C   0  0  0  0  0  0  0  0  0  0  0  0
    4.6491  -10.9459    0.0000 C   0  0  0  0  0  0  0  0  0  0  0  0
    5.5844   -9.7732    0.0000 C   0  0  0  0  0  0  0  0  0  0  0  0
    5.0364   -8.3769    0.0000 C   0  0  0  0  0  0  0  0  0  0  0  0
    3.5531   -8.1533    0.0000 C   0  0  0  0  0  0  0  0  0  0  0  0
    0.7500   -1.2990    0.0000 C   0  0  0  0  0  0  0  0  0  0  0  0
    1.5000    0.0000    0.0000 C   0  0  0  0  0  0  0  0  0  0  0  0
    0.7500    1.2990    0.0000 C   0  0  0  0  0  0  0  0  0  0  0  0
   -0.7500    1.2990    0.0000 C   0  0  0  0  0  0  0  0  0  0  0  0
   -1.5000    0.0000    0.0000 C   0  0  0  0  0  0  0  0  0  0  0  0
   -0.7500   -1.2990    0.0000 C   0  0  0  0  0  0  0  0  0  0  0  0
  1  2  1  0
  2  3  1  0
  2  4  1  0
  4  5  1  0
  5  6  1  0
  6  7  1  0
  7  8  1  0
  8  9  1  0
  9 10  2  0
 10 11  1  0
 11 12  2  0
 12 13  1  0
 13 14  2  0
 13 15  1  0
 15 16  1  0
 16 17  2  0
 12 18  1  0
 18 19  2  0
 19 20  1  0
 20 21  1  0
 21 22  1  0
 22 23  1  0
 20 24  1  0
 24 25  2  0
 25 26  1  0
 26 27  2  0
 27 28  1  0
 28 29  2  0
 10 30  1  0
 30 31  2  0
 31 32  1  0
 32 33  2  0
 33 34  1  0
 34 35  2  0
 23  5  1  0
 35  8  1  0
 16 11  1  0
 29 18  1  0
 29 24  1  0
 35 30  1  0
M  END
>  <Molecule>  (309) 
CHEMBL360847

>  <Standard Type>  (309) 
Ki

>  <Standard Relation>  (309) 
=

>  <Standard Value>  (309) 
1995.26

>  <Standard Units>  (309) 
nM

>  <pChEMBL Value>  (309) 
5.7

>  <Comment>  (309) 
active

>  <Compound Key>  (309) 
SID103905239

>  <Assay>  (309) 
CHEMBL1963742

>  <Assay Description>  (309) 
PUBCHEM_BIOASSAY: Navigating the Kinome. (Class of assay: other) Panel member name: JAK3

>  <BAO Format>  (309) 
assay format

>  <Target>  (309) 
CHEMBL2148

>  <Target Pref. Name>  (309) 
Tyrosine-protein kinase JAK3

>  <Target Organism>  (309) 
Homo sapiens

>  <Target Type>  (309) 
SINGLE PROTEIN

>  <Document>  (309) 
CHEMBL1201862

>  <Source>  (309) 
PubChem BioAssays

>  <Max Phase>  (309) 
0

>  <#Ro5 Violations>  (309) 
0

>  <Molecular Weight>  (309) 
468.56

>  <Ligand Efficiency BEI>  (309) 
nan

>  <Ligand Efficiency LE>  (309) 
nan

>  <Ligand Efficiency LLE>  (309) 
nan

>  <Ligand Efficiency SEI>  (309) 
nan

>  <ALogP>  (309) 
3.51

>  <Assay Organism>  (309) 
nan

>  <Assay Tissue ChEMBL ID>  (309) 
nan

>  <Assay Tissue Name>  (309) 
nan

>  <Assay Cell Type>  (309) 
nan

>  <Assay Subcellular Fraction>  (309) 
nan

>  <Organism Tax ID>  (309) 
9606

>  <BAO Format ID>  (309) 
BAO_0000019

>  <Published Type>  (309) 
nan

>  <Published Relation>  (309) 
nan

>  <Published Value>  (309) 
nan

>  <Published Units>  (309) 
nan

>  <Canonical Smiles>  (309) 
CN(C)CC1CCn2cc(C3=C(C(=O)NC3=O)c4cn(CCO1)c5ccccc45)c6ccccc26

>  <Data Validity Comment>  (309) 
nan

>  <Document Journal>  (309) 
nan

>  <Document Year>  (309) 
nan

>  <SRC ID>  (309) 
7

>  <UO Units>  (309) 
UO_0000065

>  <Potential Duplicate>  (309) 
False

>  <Class>  (309) 
1

$$$$

     RDKit          2D

 25 28  0  0  0  0  0  0  0  0999 V2000
   -4.9294   -7.5000    0.0000 C   0  0  0  0  0  0  0  0  0  0  0  0
   -4.9294   -6.0000    0.0000 N   0  0  0  0  0  0  0  0  0  0  0  0
   -3.6304   -5.2500    0.0000 C   0  0  0  0  0  0  0  0  0  0  0  0
   -2.3313   -6.0000    0.0000 O   0  0  0  0  0  0  0  0  0  0  0  0
   -3.6304   -3.7500    0.0000 C   0  0  0  0  0  0  0  0  0  0  0  0
   -2.3313   -3.0000    0.0000 C   0  0  0  0  0  0  0  0  0  0  0  0
   -2.3313   -1.5000    0.0000 C   0  0  0  0  0  0  0  0  0  0  0  0
   -3.6304   -0.7500    0.0000 C   0  0  0  0  0  0  0  0  0  0  0  0
   -3.6304    0.7500    0.0000 N   0  0  0  0  0  0  0  0  0  0  0  0
   -2.3313    1.5000    0.0000 C   0  0  0  0  0  0  0  0  0  0  0  0
   -2.3313    3.0000    0.0000 N   0  0  0  0  0  0  0  0  0  0  0  0
   -1.0323    0.7500    0.0000 C   0  0  0  0  0  0  0  0  0  0  0  0
    0.3943    1.2135    0.0000 C   0  0  0  0  0  0  0  0  0  0  0  0
    1.2760    0.0000    0.0000 C   0  0  0  0  0  0  0  0  0  0  0  0
    0.3943   -1.2135    0.0000 S   0  0  0  0  0  0  0  0  0  0  0  0
   -1.0323   -0.7500    0.0000 C   0  0  0  0  0  0  0  0  0  0  0  0
    0.8578    2.6401    0.0000 C   0  0  0  0  0  0  0  0  0  0  0  0
   -0.1459    3.7548    0.0000 C   0  0  0  0  0  0  0  0  0  0  0  0
    0.3177    5.1814    0.0000 C   0  0  0  0  0  0  0  0  0  0  0  0
    1.7849    5.4933    0.0000 C   0  0  0  0  0  0  0  0  0  0  0  0
    2.5349    6.7923    0.0000 O   0  0  0  0  0  0  0  0  0  0  0  0
    4.0021    6.4805    0.0000 C   0  0  0  0  0  0  0  0  0  0  0  0
    4.1589    4.9887    0.0000 O   0  0  0  0  0  0  0  0  0  0  0  0
    2.7886    4.3786    0.0000 C   0  0  0  0  0  0  0  0  0  0  0  0
    2.3250    2.9520    0.0000 C   0  0  0  0  0  0  0  0  0  0  0  0
  1  2  1  0
  2  3  1  0
  3  4  2  0
  3  5  1  0
  5  6  2  3
  6  7  1  0
  7  8  2  0
  8  9  1  0
  9 10  2  0
 10 11  1  0
 10 12  1  0
 12 13  1  0
 13 14  2  0
 14 15  1  0
 15 16  1  0
 13 17  1  0
 17 18  2  0
 18 19  1  0
 19 20  2  0
 20 21  1  0
 21 22  1  0
 22 23  1  0
 23 24  1  0
 24 25  2  0
 16  7  1  0
 16 12  2  0
 25 17  1  0
 24 20  1  0
M  END
>  <Molecule>  (310) 
CHEMBL1993243

>  <Standard Type>  (310) 
Ki

>  <Standard Relation>  (310) 
>

>  <Standard Value>  (310) 
1584.89

>  <Standard Units>  (310) 
nM

>  <pChEMBL Value>  (310) 
nan

>  <Comment>  (310) 
inactive

>  <Compound Key>  (310) 
SID103905095

>  <Assay>  (310) 
CHEMBL1963742

>  <Assay Description>  (310) 
PUBCHEM_BIOASSAY: Navigating the Kinome. (Class of assay: other) Panel member name: JAK3

>  <BAO Format>  (310) 
assay format

>  <Target>  (310) 
CHEMBL2148

>  <Target Pref. Name>  (310) 
Tyrosine-protein kinase JAK3

>  <Target Organism>  (310) 
Homo sapiens

>  <Target Type>  (310) 
SINGLE PROTEIN

>  <Document>  (310) 
CHEMBL1201862

>  <Source>  (310) 
PubChem BioAssays

>  <Max Phase>  (310) 
0

>  <#Ro5 Violations>  (310) 
0

>  <Molecular Weight>  (310) 
353.4

>  <Ligand Efficiency BEI>  (310) 
nan

>  <Ligand Efficiency LE>  (310) 
nan

>  <Ligand Efficiency LLE>  (310) 
nan

>  <Ligand Efficiency SEI>  (310) 
nan

>  <ALogP>  (310) 
3.03

>  <Assay Organism>  (310) 
nan

>  <Assay Tissue ChEMBL ID>  (310) 
nan

>  <Assay Tissue Name>  (310) 
nan

>  <Assay Cell Type>  (310) 
nan

>  <Assay Subcellular Fraction>  (310) 
nan

>  <Organism Tax ID>  (310) 
9606

>  <BAO Format ID>  (310) 
BAO_0000019

>  <Published Type>  (310) 
nan

>  <Published Relation>  (310) 
nan

>  <Published Value>  (310) 
nan

>  <Published Units>  (310) 
nan

>  <Canonical Smiles>  (310) 
CNC(=O)C=Cc1cnc(N)c2c(csc12)c3ccc4OCOc4c3

>  <Data Validity Comment>  (310) 
nan

>  <Document Journal>  (310) 
nan

>  <Document Year>  (310) 
nan

>  <SRC ID>  (310) 
7

>  <UO Units>  (310) 
UO_0000065

>  <Potential Duplicate>  (310) 
False

>  <Class>  (310) 
0

$$$$

     RDKit          2D

 26 30  0  0  0  0  0  0  0  0999 V2000
   -6.2284    0.7500    0.0000 O   0  0  0  0  0  0  0  0  0  0  0  0
   -6.2284   -0.7500    0.0000 C   0  0  0  0  0  0  0  0  0  0  0  0
   -4.9294   -1.5000    0.0000 N   0  0  0  0  0  0  0  0  0  0  0  0
   -3.6304   -0.7500    0.0000 C   0  0  0  0  0  0  0  0  0  0  0  0
   -3.6304    0.7500    0.0000 C   0  0  0  0  0  0  0  0  0  0  0  0
   -2.3313    1.5000    0.0000 C   0  0  0  0  0  0  0  0  0  0  0  0
   -2.5104    2.9893    0.0000 C   0  0  0  0  0  0  0  0  0  0  0  0
   -3.9299    3.4741    0.0000 O   0  0  0  0  0  0  0  0  0  0  0  0
   -1.4577    4.0578    0.0000 N   0  0  0  0  0  0  0  0  0  0  0  0
    0.0341    3.9010    0.0000 N   0  0  0  0  0  0  0  0  0  0  0  0
    0.8416    2.6370    0.0000 C   0  0  0  0  0  0  0  0  0  0  0  0
    0.3943    1.2135    0.0000 C   0  0  0  0  0  0  0  0  0  0  0  0
    1.2760    0.0000    0.0000 C   0  0  0  0  0  0  0  0  0  0  0  0
    0.3943   -1.2135    0.0000 N   0  0  0  0  0  0  0  0  0  0  0  0
   -1.0323   -0.7500    0.0000 C   0  0  0  0  0  0  0  0  0  0  0  0
   -2.3313   -1.5000    0.0000 C   0  0  0  0  0  0  0  0  0  0  0  0
   -1.0323    0.7500    0.0000 C   0  0  0  0  0  0  0  0  0  0  0  0
   -7.5275   -1.5000    0.0000 C   0  0  0  0  0  0  0  0  0  0  0  0
   -8.2775   -2.7990    0.0000 C   0  0  0  0  0  0  0  0  0  0  0  0
   -9.0275   -1.5000    0.0000 C   0  0  0  0  0  0  0  0  0  0  0  0
  -10.3265   -0.7500    0.0000 C   0  0  0  0  0  0  0  0  0  0  0  0
  -10.3265    0.7500    0.0000 C   0  0  0  0  0  0  0  0  0  0  0  0
  -11.6256    1.5000    0.0000 C   0  0  0  0  0  0  0  0  0  0  0  0
  -12.9246    0.7500    0.0000 C   0  0  0  0  0  0  0  0  0  0  0  0
  -12.9246   -0.7500    0.0000 C   0  0  0  0  0  0  0  0  0  0  0  0
  -11.6256   -1.5000    0.0000 C   0  0  0  0  0  0  0  0  0  0  0  0
  1  2  2  0
  2  3  1  0
  3  4  1  0
  4  5  2  0
  5  6  1  0
  6  7  1  0
  7  8  2  0
  7  9  1  0
  9 10  1  0
 10 11  2  0
 11 12  1  0
 12 13  2  0
 13 14  1  0
 14 15  1  0
 15 16  2  0
 15 17  1  0
  2 18  1  0
 18 19  1  0
 19 20  1  0
 20 21  1  0
 21 22  2  0
 22 23  1  0
 23 24  2  0
 24 25  1  0
 25 26  2  0
 16  4  1  0
 17  6  2  0
 17 12  1  0
 20 18  1  0
 26 21  1  0
M  END
>  <Molecule>  (311) 
CHEMBL1969502

>  <Standard Type>  (311) 
Ki

>  <Standard Relation>  (311) 
=

>  <Standard Value>  (311) 
199.53

>  <Standard Units>  (311) 
nM

>  <pChEMBL Value>  (311) 
6.7

>  <Comment>  (311) 
active

>  <Compound Key>  (311) 
SID103905055

>  <Assay>  (311) 
CHEMBL1963742

>  <Assay Description>  (311) 
PUBCHEM_BIOASSAY: Navigating the Kinome. (Class of assay: other) Panel member name: JAK3

>  <BAO Format>  (311) 
assay format

>  <Target>  (311) 
CHEMBL2148

>  <Target Pref. Name>  (311) 
Tyrosine-protein kinase JAK3

>  <Target Organism>  (311) 
Homo sapiens

>  <Target Type>  (311) 
SINGLE PROTEIN

>  <Document>  (311) 
CHEMBL1201862

>  <Source>  (311) 
PubChem BioAssays

>  <Max Phase>  (311) 
0

>  <#Ro5 Violations>  (311) 
0

>  <Molecular Weight>  (311) 
344.37

>  <Ligand Efficiency BEI>  (311) 
nan

>  <Ligand Efficiency LE>  (311) 
nan

>  <Ligand Efficiency LLE>  (311) 
nan

>  <Ligand Efficiency SEI>  (311) 
nan

>  <ALogP>  (311) 
3.15

>  <Assay Organism>  (311) 
nan

>  <Assay Tissue ChEMBL ID>  (311) 
nan

>  <Assay Tissue Name>  (311) 
nan

>  <Assay Cell Type>  (311) 
nan

>  <Assay Subcellular Fraction>  (311) 
nan

>  <Organism Tax ID>  (311) 
9606

>  <BAO Format ID>  (311) 
BAO_0000019

>  <Published Type>  (311) 
nan

>  <Published Relation>  (311) 
nan

>  <Published Value>  (311) 
nan

>  <Published Units>  (311) 
nan

>  <Canonical Smiles>  (311) 
O=C(Nc1cc2C(=O)NN=Cc3c[nH]c(c1)c23)C4CC4c5ccccc5

>  <Data Validity Comment>  (311) 
nan

>  <Document Journal>  (311) 
nan

>  <Document Year>  (311) 
nan

>  <SRC ID>  (311) 
7

>  <UO Units>  (311) 
UO_0000065

>  <Potential Duplicate>  (311) 
False

>  <Class>  (311) 
1

$$$$

     RDKit          2D

 39 44  0  0  0  0  0  0  0  0999 V2000
   -2.3313   -3.0000    0.0000 N   0  0  0  0  0  0  0  0  0  0  0  0
   -2.3313   -1.5000    0.0000 C   0  0  0  0  0  0  0  0  0  0  0  0
   -3.6304   -0.7500    0.0000 C   0  0  0  0  0  0  0  0  0  0  0  0
   -3.6304    0.7500    0.0000 C   0  0  0  0  0  0  0  0  0  0  0  0
   -2.3313    1.5000    0.0000 N   0  0  0  0  0  0  0  0  0  0  0  0
   -1.0323    0.7500    0.0000 C   0  0  0  0  0  0  0  0  0  0  0  0
    0.3943    1.2135    0.0000 C   0  0  0  0  0  0  0  0  0  0  0  0
    1.2760    0.0000    0.0000 C   0  0  0  0  0  0  0  0  0  0  0  0
    0.3943   -1.2135    0.0000 N   0  0  0  0  0  0  0  0  0  0  0  0
   -1.0323   -0.7500    0.0000 N   0  0  0  0  0  0  0  0  0  0  0  0
    0.8578    2.6401    0.0000 C   0  0  0  0  0  0  0  0  0  0  0  0
   -0.1459    3.7548    0.0000 C   0  0  0  0  0  0  0  0  0  0  0  0
    0.3177    5.1814    0.0000 C   0  0  0  0  0  0  0  0  0  0  0  0
    1.7849    5.4933    0.0000 C   0  0  0  0  0  0  0  0  0  0  0  0
    2.5349    6.7923    0.0000 O   0  0  0  0  0  0  0  0  0  0  0  0
    4.0021    6.4805    0.0000 C   0  0  0  0  0  0  0  0  0  0  0  0
    4.1589    4.9887    0.0000 O   0  0  0  0  0  0  0  0  0  0  0  0
    2.7886    4.3786    0.0000 C   0  0  0  0  0  0  0  0  0  0  0  0
    2.3250    2.9520    0.0000 C   0  0  0  0  0  0  0  0  0  0  0  0
   -4.9294   -1.5000    0.0000 C   0  0  0  0  0  0  0  0  0  0  0  0
   -6.2284   -0.7500    0.0000 C   0  0  0  0  0  0  0  0  0  0  0  0
   -7.5275   -1.5000    0.0000 C   0  0  0  0  0  0  0  0  0  0  0  0
   -7.5275   -3.0000    0.0000 C   0  0  0  0  0  0  0  0  0  0  0  0
   -8.8265   -3.7500    0.0000 N   0  0  0  0  0  0  0  0  0  0  0  0
  -10.1256   -3.0000    0.0000 C   0  0  0  0  0  0  0  0  0  0  0  0
  -10.1256   -1.5000    0.0000 O   0  0  0  0  0  0  0  0  0  0  0  0
  -11.4246   -3.7500    0.0000 N   0  0  0  0  0  0  0  0  0  0  0  0
  -12.7236   -3.0000    0.0000 C   0  0  0  0  0  0  0  0  0  0  0  0
  -12.7236   -1.5000    0.0000 C   0  0  0  0  0  0  0  0  0  0  0  0
  -14.0227   -0.7500    0.0000 C   0  0  0  0  0  0  0  0  0  0  0  0
  -15.3217   -1.5000    0.0000 C   0  0  0  0  0  0  0  0  0  0  0  0
  -15.3217   -3.0000    0.0000 C   0  0  0  0  0  0  0  0  0  0  0  0
  -14.0227   -3.7500    0.0000 C   0  0  0  0  0  0  0  0  0  0  0  0
  -16.6207   -3.7500    0.0000 C   0  0  0  0  0  0  0  0  0  0  0  0
  -17.9198   -4.5000    0.0000 F   0  0  0  0  0  0  0  0  0  0  0  0
  -17.3707   -2.4510    0.0000 F   0  0  0  0  0  0  0  0  0  0  0  0
  -15.8707   -5.0490    0.0000 F   0  0  0  0  0  0  0  0  0  0  0  0
   -6.2284   -3.7500    0.0000 C   0  0  0  0  0  0  0  0  0  0  0  0
   -4.9294   -3.0000    0.0000 C   0  0  0  0  0  0  0  0  0  0  0  0
  1  2  1  0
  2  3  2  0
  3  4  1  0
  4  5  2  0
  5  6  1  0
  6  7  2  0
  7  8  1  0
  8  9  2  0
  9 10  1  0
  7 11  1  0
 11 12  2  0
 12 13  1  0
 13 14  2  0
 14 15  1  0
 15 16  1  0
 16 17  1  0
 17 18  1  0
 18 19  2  0
  3 20  1  0
 20 21  2  0
 21 22  1  0
 22 23  2  0
 23 24  1  0
 24 25  1  0
 25 26  2  0
 25 27  1  0
 27 28  1  0
 28 29  2  0
 29 30  1  0
 30 31  2  0
 31 32  1  0
 32 33  2  0
 32 34  1  0
 34 35  1  0
 34 36  1  0
 34 37  1  0
 23 38  1  0
 38 39  2  0
 10  2  1  0
 10  6  1  0
 19 11  1  0
 18 14  1  0
 39 20  1  0
 33 28  1  0
M  END
>  <Molecule>  (312) 
CHEMBL1977134

>  <Standard Type>  (312) 
Ki

>  <Standard Relation>  (312) 
>

>  <Standard Value>  (312) 
5011.87

>  <Standard Units>  (312) 
nM

>  <pChEMBL Value>  (312) 
nan

>  <Comment>  (312) 
inactive

>  <Compound Key>  (312) 
SID103904270

>  <Assay>  (312) 
CHEMBL1963742

>  <Assay Description>  (312) 
PUBCHEM_BIOASSAY: Navigating the Kinome. (Class of assay: other) Panel member name: JAK3

>  <BAO Format>  (312) 
assay format

>  <Target>  (312) 
CHEMBL2148

>  <Target Pref. Name>  (312) 
Tyrosine-protein kinase JAK3

>  <Target Organism>  (312) 
Homo sapiens

>  <Target Type>  (312) 
SINGLE PROTEIN

>  <Document>  (312) 
CHEMBL1201862

>  <Source>  (312) 
PubChem BioAssays

>  <Max Phase>  (312) 
0

>  <#Ro5 Violations>  (312) 
2

>  <Molecular Weight>  (312) 
532.48

>  <Ligand Efficiency BEI>  (312) 
nan

>  <Ligand Efficiency LE>  (312) 
nan

>  <Ligand Efficiency LLE>  (312) 
nan

>  <Ligand Efficiency SEI>  (312) 
nan

>  <ALogP>  (312) 
6.04

>  <Assay Organism>  (312) 
nan

>  <Assay Tissue ChEMBL ID>  (312) 
nan

>  <Assay Tissue Name>  (312) 
nan

>  <Assay Cell Type>  (312) 
nan

>  <Assay Subcellular Fraction>  (312) 
nan

>  <Organism Tax ID>  (312) 
9606

>  <BAO Format ID>  (312) 
BAO_0000019

>  <Published Type>  (312) 
nan

>  <Published Relation>  (312) 
nan

>  <Published Value>  (312) 
nan

>  <Published Units>  (312) 
nan

>  <Canonical Smiles>  (312) 
Nc1c(cnc2c(cnn12)c3ccc4OCOc4c3)c5ccc(NC(=O)Nc6cccc(c6)C(F)(F)F)cc5

>  <Data Validity Comment>  (312) 
nan

>  <Document Journal>  (312) 
nan

>  <Document Year>  (312) 
nan

>  <SRC ID>  (312) 
7

>  <UO Units>  (312) 
UO_0000065

>  <Potential Duplicate>  (312) 
False

>  <Class>  (312) 
0

$$$$

     RDKit          2D

 28 32  0  0  0  0  0  0  0  0999 V2000
    2.2484    6.9199    0.0000 N   0  0  0  0  0  0  0  0  0  0  0  0
    1.7849    5.4933    0.0000 C   0  0  0  0  0  0  0  0  0  0  0  0
    2.7886    4.3786    0.0000 C   0  0  0  0  0  0  0  0  0  0  0  0
    2.3250    2.9520    0.0000 C   0  0  0  0  0  0  0  0  0  0  0  0
    0.8578    2.6401    0.0000 C   0  0  0  0  0  0  0  0  0  0  0  0
   -0.1459    3.7548    0.0000 C   0  0  0  0  0  0  0  0  0  0  0  0
    0.3177    5.1814    0.0000 C   0  0  0  0  0  0  0  0  0  0  0  0
    0.3943    1.2135    0.0000 C   0  0  0  0  0  0  0  0  0  0  0  0
    1.2760    0.0000    0.0000 C   0  0  0  0  0  0  0  0  0  0  0  0
    0.3943   -1.2135    0.0000 S   0  0  0  0  0  0  0  0  0  0  0  0
   -1.0323   -0.7500    0.0000 C   0  0  0  0  0  0  0  0  0  0  0  0
   -2.3313   -1.5000    0.0000 C   0  0  0  0  0  0  0  0  0  0  0  0
   -2.3313   -3.0000    0.0000 C   0  0  0  0  0  0  0  0  0  0  0  0
   -3.6304   -3.7500    0.0000 C   0  0  0  0  0  0  0  0  0  0  0  0
   -3.6304   -5.2500    0.0000 C   0  0  0  0  0  0  0  0  0  0  0  0
   -4.8439   -6.1317    0.0000 N   0  0  0  0  0  0  0  0  0  0  0  0
   -4.3804   -7.5583    0.0000 C   0  0  0  0  0  0  0  0  0  0  0  0
   -5.1304   -8.8573    0.0000 C   0  0  0  0  0  0  0  0  0  0  0  0
   -4.3804  -10.1563    0.0000 C   0  0  0  0  0  0  0  0  0  0  0  0
   -2.8804  -10.1563    0.0000 C   0  0  0  0  0  0  0  0  0  0  0  0
   -2.1304   -8.8573    0.0000 C   0  0  0  0  0  0  0  0  0  0  0  0
   -2.8804   -7.5583    0.0000 C   0  0  0  0  0  0  0  0  0  0  0  0
   -2.4168   -6.1317    0.0000 N   0  0  0  0  0  0  0  0  0  0  0  0
   -3.6304   -0.7500    0.0000 C   0  0  0  0  0  0  0  0  0  0  0  0
   -3.6304    0.7500    0.0000 N   0  0  0  0  0  0  0  0  0  0  0  0
   -2.3313    1.5000    0.0000 C   0  0  0  0  0  0  0  0  0  0  0  0
   -2.3313    3.0000    0.0000 N   0  0  0  0  0  0  0  0  0  0  0  0
   -1.0323    0.7500    0.0000 C   0  0  0  0  0  0  0  0  0  0  0  0
  1  2  1  0
  2  3  2  0
  3  4  1  0
  4  5  2  0
  5  6  1  0
  6  7  2  0
  5  8  1  0
  8  9  2  0
  9 10  1  0
 10 11  1  0
 11 12  2  0
 12 13  1  0
 13 14  2  3
 14 15  1  0
 15 16  2  0
 16 17  1  0
 17 18  2  0
 18 19  1  0
 19 20  2  0
 20 21  1  0
 21 22  2  0
 22 23  1  0
 12 24  1  0
 24 25  2  0
 25 26  1  0
 26 27  1  0
 26 28  2  0
  7  2  1  0
 28  8  1  0
 28 11  1  0
 23 15  1  0
 22 17  1  0
M  END
>  <Molecule>  (313) 
CHEMBL1988300

>  <Standard Type>  (313) 
Ki

>  <Standard Relation>  (313) 
>

>  <Standard Value>  (313) 
1584.89

>  <Standard Units>  (313) 
nM

>  <pChEMBL Value>  (313) 
nan

>  <Comment>  (313) 
inactive

>  <Compound Key>  (313) 
SID103905092

>  <Assay>  (313) 
CHEMBL1963742

>  <Assay Description>  (313) 
PUBCHEM_BIOASSAY: Navigating the Kinome. (Class of assay: other) Panel member name: JAK3

>  <BAO Format>  (313) 
assay format

>  <Target>  (313) 
CHEMBL2148

>  <Target Pref. Name>  (313) 
Tyrosine-protein kinase JAK3

>  <Target Organism>  (313) 
Homo sapiens

>  <Target Type>  (313) 
SINGLE PROTEIN

>  <Document>  (313) 
CHEMBL1201862

>  <Source>  (313) 
PubChem BioAssays

>  <Max Phase>  (313) 
0

>  <#Ro5 Violations>  (313) 
1

>  <Molecular Weight>  (313) 
383.48

>  <Ligand Efficiency BEI>  (313) 
nan

>  <Ligand Efficiency LE>  (313) 
nan

>  <Ligand Efficiency LLE>  (313) 
nan

>  <Ligand Efficiency SEI>  (313) 
nan

>  <ALogP>  (313) 
5.17

>  <Assay Organism>  (313) 
nan

>  <Assay Tissue ChEMBL ID>  (313) 
nan

>  <Assay Tissue Name>  (313) 
nan

>  <Assay Cell Type>  (313) 
nan

>  <Assay Subcellular Fraction>  (313) 
nan

>  <Organism Tax ID>  (313) 
9606

>  <BAO Format ID>  (313) 
BAO_0000019

>  <Published Type>  (313) 
nan

>  <Published Relation>  (313) 
nan

>  <Published Value>  (313) 
nan

>  <Published Units>  (313) 
nan

>  <Canonical Smiles>  (313) 
Nc1ccc(cc1)c2csc3c(C=Cc4nc5ccccc5[nH]4)cnc(N)c23

>  <Data Validity Comment>  (313) 
nan

>  <Document Journal>  (313) 
nan

>  <Document Year>  (313) 
nan

>  <SRC ID>  (313) 
7

>  <UO Units>  (313) 
UO_0000065

>  <Potential Duplicate>  (313) 
False

>  <Class>  (313) 
0

$$$$

     RDKit          2D

 28 32  0  0  0  0  0  0  0  0999 V2000
   -2.6401   -3.1891    0.0000 N   0  0  0  0  0  0  0  0  0  0  0  0
   -1.2135   -2.7256    0.0000 C   0  0  0  0  0  0  0  0  0  0  0  0
   -0.0000   -3.6073    0.0000 N   0  0  0  0  0  0  0  0  0  0  0  0
    1.2135   -2.7256    0.0000 N   0  0  0  0  0  0  0  0  0  0  0  0
    0.7500   -1.2990    0.0000 C   0  0  0  0  0  0  0  0  0  0  0  0
    1.5000    0.0000    0.0000 C   0  0  0  0  0  0  0  0  0  0  0  0
    0.7500    1.2990    0.0000 C   0  0  0  0  0  0  0  0  0  0  0  0
   -0.7500    1.2990    0.0000 C   0  0  0  0  0  0  0  0  0  0  0  0
   -1.5000    0.0000    0.0000 C   0  0  0  0  0  0  0  0  0  0  0  0
   -0.7500   -1.2990    0.0000 C   0  0  0  0  0  0  0  0  0  0  0  0
   -1.5000    2.5981    0.0000 C   0  0  0  0  0  0  0  0  0  0  0  0
   -2.9918    2.7549    0.0000 N   0  0  0  0  0  0  0  0  0  0  0  0
   -3.3037    4.2221    0.0000 N   0  0  0  0  0  0  0  0  0  0  0  0
   -2.0046    4.9721    0.0000 N   0  0  0  0  0  0  0  0  0  0  0  0
   -1.8478    6.4639    0.0000 C   0  0  0  0  0  0  0  0  0  0  0  0
   -3.0613    7.3456    0.0000 C   0  0  0  0  0  0  0  0  0  0  0  0
   -4.4317    6.7354    0.0000 C   0  0  0  0  0  0  0  0  0  0  0  0
   -5.6452    7.6171    0.0000 C   0  0  0  0  0  0  0  0  0  0  0  0
   -5.4884    9.1089    0.0000 C   0  0  0  0  0  0  0  0  0  0  0  0
   -4.1181    9.7190    0.0000 C   0  0  0  0  0  0  0  0  0  0  0  0
   -2.9046    8.8373    0.0000 C   0  0  0  0  0  0  0  0  0  0  0  0
   -0.8899    3.9684    0.0000 C   0  0  0  0  0  0  0  0  0  0  0  0
    0.5773    4.2803    0.0000 C   0  0  0  0  0  0  0  0  0  0  0  0
    1.5810    3.1655    0.0000 C   0  0  0  0  0  0  0  0  0  0  0  0
    3.0482    3.4774    0.0000 C   0  0  0  0  0  0  0  0  0  0  0  0
    3.5118    4.9040    0.0000 C   0  0  0  0  0  0  0  0  0  0  0  0
    2.5081    6.0187    0.0000 C   0  0  0  0  0  0  0  0  0  0  0  0
    1.0409    5.7068    0.0000 C   0  0  0  0  0  0  0  0  0  0  0  0
  1  2  1  0
  2  3  2  0
  3  4  1  0
  4  5  1  0
  5  6  2  0
  6  7  1  0
  7  8  2  0
  8  9  1  0
  9 10  2  0
  8 11  1  0
 11 12  1  0
 12 13  2  0
 13 14  1  0
 14 15  1  0
 15 16  1  0
 16 17  2  0
 17 18  1  0
 18 19  2  0
 19 20  1  0
 20 21  2  0
 14 22  1  0
 22 23  1  0
 23 24  2  0
 24 25  1  0
 25 26  2  0
 26 27  1  0
 27 28  2  0
 10  2  1  0
 10  5  1  0
 22 11  2  0
 21 16  1  0
 28 23  1  0
M  END
>  <Molecule>  (314) 
CHEMBL1972158

>  <Standard Type>  (314) 
Ki

>  <Standard Relation>  (314) 
=

>  <Standard Value>  (314) 
316.23

>  <Standard Units>  (314) 
nM

>  <pChEMBL Value>  (314) 
6.5

>  <Comment>  (314) 
active

>  <Compound Key>  (314) 
SID103904464

>  <Assay>  (314) 
CHEMBL1963742

>  <Assay Description>  (314) 
PUBCHEM_BIOASSAY: Navigating the Kinome. (Class of assay: other) Panel member name: JAK3

>  <BAO Format>  (314) 
assay format

>  <Target>  (314) 
CHEMBL2148

>  <Target Pref. Name>  (314) 
Tyrosine-protein kinase JAK3

>  <Target Organism>  (314) 
Homo sapiens

>  <Target Type>  (314) 
SINGLE PROTEIN

>  <Document>  (314) 
CHEMBL1201862

>  <Source>  (314) 
PubChem BioAssays

>  <Max Phase>  (314) 
0

>  <#Ro5 Violations>  (314) 
0

>  <Molecular Weight>  (314) 
366.43

>  <Ligand Efficiency BEI>  (314) 
nan

>  <Ligand Efficiency LE>  (314) 
nan

>  <Ligand Efficiency LLE>  (314) 
nan

>  <Ligand Efficiency SEI>  (314) 
nan

>  <ALogP>  (314) 
4.12

>  <Assay Organism>  (314) 
nan

>  <Assay Tissue ChEMBL ID>  (314) 
nan

>  <Assay Tissue Name>  (314) 
nan

>  <Assay Cell Type>  (314) 
nan

>  <Assay Subcellular Fraction>  (314) 
nan

>  <Organism Tax ID>  (314) 
9606

>  <BAO Format ID>  (314) 
BAO_0000019

>  <Published Type>  (314) 
nan

>  <Published Relation>  (314) 
nan

>  <Published Value>  (314) 
nan

>  <Published Units>  (314) 
nan

>  <Canonical Smiles>  (314) 
Nc1n[nH]c2ccc(cc12)c3nnn(Cc4ccccc4)c3c5ccccc5

>  <Data Validity Comment>  (314) 
nan

>  <Document Journal>  (314) 
nan

>  <Document Year>  (314) 
nan

>  <SRC ID>  (314) 
7

>  <UO Units>  (314) 
UO_0000065

>  <Potential Duplicate>  (314) 
False

>  <Class>  (314) 
1

$$$$

     RDKit          2D

 28 31  0  0  0  0  0  0  0  0999 V2000
  -10.6670    6.5618    0.0000 O   0  0  0  0  0  0  0  0  0  0  0  0
  -11.5487    5.3483    0.0000 C   0  0  0  0  0  0  0  0  0  0  0  0
  -13.0405    5.5051    0.0000 N   0  0  0  0  0  0  0  0  0  0  0  0
  -13.6506    6.8754    0.0000 C   0  0  0  0  0  0  0  0  0  0  0  0
  -12.7689    8.0890    0.0000 C   0  0  0  0  0  0  0  0  0  0  0  0
  -13.3790    9.4593    0.0000 C   0  0  0  0  0  0  0  0  0  0  0  0
  -14.8708    9.6161    0.0000 C   0  0  0  0  0  0  0  0  0  0  0  0
  -15.7525    8.4025    0.0000 C   0  0  0  0  0  0  0  0  0  0  0  0
  -17.2443    8.5593    0.0000 Cl  0  0  0  0  0  0  0  0  0  0  0  0
  -15.1424    7.0322    0.0000 C   0  0  0  0  0  0  0  0  0  0  0  0
  -10.9386    3.9780    0.0000 N   0  0  0  0  0  0  0  0  0  0  0  0
   -9.4468    3.8212    0.0000 C   0  0  0  0  0  0  0  0  0  0  0  0
   -8.4431    4.9359    0.0000 N   0  0  0  0  0  0  0  0  0  0  0  0
   -7.0728    4.3258    0.0000 C   0  0  0  0  0  0  0  0  0  0  0  0
   -7.2296    2.8340    0.0000 C   0  0  0  0  0  0  0  0  0  0  0  0
   -6.1149    1.8303    0.0000 C   0  0  0  0  0  0  0  0  0  0  0  0
   -4.6883    2.2939    0.0000 C   0  0  0  0  0  0  0  0  0  0  0  0
   -3.5736    1.2902    0.0000 N   0  0  0  0  0  0  0  0  0  0  0  0
   -2.1470    1.7537    0.0000 C   0  0  0  0  0  0  0  0  0  0  0  0
   -1.8351    3.2209    0.0000 N   0  0  0  0  0  0  0  0  0  0  0  0
   -0.4086    3.6844    0.0000 C   0  0  0  0  0  0  0  0  0  0  0  0
    0.7062    2.6807    0.0000 N   0  0  0  0  0  0  0  0  0  0  0  0
    0.3943    1.2135    0.0000 C   0  0  0  0  0  0  0  0  0  0  0  0
    1.2760    0.0000    0.0000 C   0  0  0  0  0  0  0  0  0  0  0  0
    0.3943   -1.2135    0.0000 C   0  0  0  0  0  0  0  0  0  0  0  0
   -1.0323   -0.7500    0.0000 S   0  0  0  0  0  0  0  0  0  0  0  0
   -1.0323    0.7500    0.0000 C   0  0  0  0  0  0  0  0  0  0  0  0
   -8.6968    2.5222    0.0000 S   0  0  0  0  0  0  0  0  0  0  0  0
  1  2  1  0
  2  3  2  3
  3  4  1  0
  4  5  2  0
  5  6  1  0
  6  7  2  0
  7  8  1  0
  8  9  1  0
  8 10  2  0
  2 11  1  0
 11 12  1  0
 12 13  2  0
 13 14  1  0
 14 15  2  0
 15 16  1  0
 16 17  1  0
 17 18  1  0
 18 19  2  3
 19 20  1  0
 20 21  1  0
 21 22  2  0
 22 23  1  0
 23 24  1  0
 24 25  2  0
 25 26  1  0
 26 27  1  0
 15 28  1  0
 10  4  1  0
 28 12  1  0
 27 19  1  0
 27 23  2  0
M  END
>  <Molecule>  (315) 
CHEMBL482767

>  <Standard Type>  (315) 
Ki

>  <Standard Relation>  (315) 
>

>  <Standard Value>  (315) 
3981.07

>  <Standard Units>  (315) 
nM

>  <pChEMBL Value>  (315) 
nan

>  <Comment>  (315) 
inactive

>  <Compound Key>  (315) 
SID103905586

>  <Assay>  (315) 
CHEMBL1963742

>  <Assay Description>  (315) 
PUBCHEM_BIOASSAY: Navigating the Kinome. (Class of assay: other) Panel member name: JAK3

>  <BAO Format>  (315) 
assay format

>  <Target>  (315) 
CHEMBL2148

>  <Target Pref. Name>  (315) 
Tyrosine-protein kinase JAK3

>  <Target Organism>  (315) 
Homo sapiens

>  <Target Type>  (315) 
SINGLE PROTEIN

>  <Document>  (315) 
CHEMBL1201862

>  <Source>  (315) 
PubChem BioAssays

>  <Max Phase>  (315) 
1

>  <#Ro5 Violations>  (315) 
0

>  <Molecular Weight>  (315) 
430.95

>  <Ligand Efficiency BEI>  (315) 
nan

>  <Ligand Efficiency LE>  (315) 
nan

>  <Ligand Efficiency LLE>  (315) 
nan

>  <Ligand Efficiency SEI>  (315) 
nan

>  <ALogP>  (315) 
4.54

>  <Assay Organism>  (315) 
nan

>  <Assay Tissue ChEMBL ID>  (315) 
nan

>  <Assay Tissue Name>  (315) 
nan

>  <Assay Cell Type>  (315) 
nan

>  <Assay Subcellular Fraction>  (315) 
nan

>  <Organism Tax ID>  (315) 
9606

>  <BAO Format ID>  (315) 
BAO_0000019

>  <Published Type>  (315) 
nan

>  <Published Relation>  (315) 
nan

>  <Published Value>  (315) 
nan

>  <Published Units>  (315) 
nan

>  <Canonical Smiles>  (315) 
OC(=Nc1cccc(Cl)c1)Nc2ncc(CCN=C3NC=Nc4ccsc34)s2

>  <Data Validity Comment>  (315) 
nan

>  <Document Journal>  (315) 
nan

>  <Document Year>  (315) 
nan

>  <SRC ID>  (315) 
7

>  <UO Units>  (315) 
UO_0000065

>  <Potential Duplicate>  (315) 
False

>  <Class>  (315) 
0

$$$$

     RDKit          2D

 17 19  0  0  0  0  0  0  0  0999 V2000
   -2.6401   -3.1891    0.0000 N   0  0  0  0  0  0  0  0  0  0  0  0
   -1.2135   -2.7256    0.0000 C   0  0  0  0  0  0  0  0  0  0  0  0
   -0.0000   -3.6073    0.0000 N   0  0  0  0  0  0  0  0  0  0  0  0
    1.2135   -2.7256    0.0000 O   0  0  0  0  0  0  0  0  0  0  0  0
    0.7500   -1.2990    0.0000 C   0  0  0  0  0  0  0  0  0  0  0  0
    1.5000    0.0000    0.0000 C   0  0  0  0  0  0  0  0  0  0  0  0
    0.7500    1.2990    0.0000 C   0  0  0  0  0  0  0  0  0  0  0  0
   -0.7500    1.2990    0.0000 C   0  0  0  0  0  0  0  0  0  0  0  0
   -1.5000    0.0000    0.0000 C   0  0  0  0  0  0  0  0  0  0  0  0
   -3.0000    0.0000    0.0000 C   0  0  0  0  0  0  0  0  0  0  0  0
   -3.7500    1.2990    0.0000 C   0  0  0  0  0  0  0  0  0  0  0  0
   -5.2500    1.2990    0.0000 C   0  0  0  0  0  0  0  0  0  0  0  0
   -6.0000    0.0000    0.0000 C   0  0  0  0  0  0  0  0  0  0  0  0
   -5.2500   -1.2990    0.0000 C   0  0  0  0  0  0  0  0  0  0  0  0
   -6.0000   -2.5981    0.0000 O   0  0  0  0  0  0  0  0  0  0  0  0
   -3.7500   -1.2990    0.0000 C   0  0  0  0  0  0  0  0  0  0  0  0
   -0.7500   -1.2990    0.0000 C   0  0  0  0  0  0  0  0  0  0  0  0
  1  2  1  0
  2  3  2  0
  3  4  1  0
  4  5  1  0
  5  6  2  0
  6  7  1  0
  7  8  2  0
  8  9  1  0
  9 10  1  0
 10 11  2  0
 11 12  1  0
 12 13  2  0
 13 14  1  0
 14 15  1  0
 14 16  2  0
  9 17  2  0
 17  2  1  0
 17  5  1  0
 16 10  1  0
M  END
>  <Molecule>  (316) 
CHEMBL1970340

>  <Standard Type>  (316) 
Ki

>  <Standard Relation>  (316) 
>

>  <Standard Value>  (316) 
1584.89

>  <Standard Units>  (316) 
nM

>  <pChEMBL Value>  (316) 
nan

>  <Comment>  (316) 
inactive

>  <Compound Key>  (316) 
SID103905579

>  <Assay>  (316) 
CHEMBL1963742

>  <Assay Description>  (316) 
PUBCHEM_BIOASSAY: Navigating the Kinome. (Class of assay: other) Panel member name: JAK3

>  <BAO Format>  (316) 
assay format

>  <Target>  (316) 
CHEMBL2148

>  <Target Pref. Name>  (316) 
Tyrosine-protein kinase JAK3

>  <Target Organism>  (316) 
Homo sapiens

>  <Target Type>  (316) 
SINGLE PROTEIN

>  <Document>  (316) 
CHEMBL1201862

>  <Source>  (316) 
PubChem BioAssays

>  <Max Phase>  (316) 
0

>  <#Ro5 Violations>  (316) 
0

>  <Molecular Weight>  (316) 
226.24

>  <Ligand Efficiency BEI>  (316) 
nan

>  <Ligand Efficiency LE>  (316) 
nan

>  <Ligand Efficiency LLE>  (316) 
nan

>  <Ligand Efficiency SEI>  (316) 
nan

>  <ALogP>  (316) 
2.78

>  <Assay Organism>  (316) 
nan

>  <Assay Tissue ChEMBL ID>  (316) 
nan

>  <Assay Tissue Name>  (316) 
nan

>  <Assay Cell Type>  (316) 
nan

>  <Assay Subcellular Fraction>  (316) 
nan

>  <Organism Tax ID>  (316) 
9606

>  <BAO Format ID>  (316) 
BAO_0000019

>  <Published Type>  (316) 
nan

>  <Published Relation>  (316) 
nan

>  <Published Value>  (316) 
nan

>  <Published Units>  (316) 
nan

>  <Canonical Smiles>  (316) 
Nc1noc2cccc(c3cccc(O)c3)c12

>  <Data Validity Comment>  (316) 
nan

>  <Document Journal>  (316) 
nan

>  <Document Year>  (316) 
nan

>  <SRC ID>  (316) 
7

>  <UO Units>  (316) 
UO_0000065

>  <Potential Duplicate>  (316) 
False

>  <Class>  (316) 
0

$$$$

     RDKit          2D

 22 24  0  0  0  0  0  0  0  0999 V2000
    3.7500   -1.2990    0.0000 N   0  0  0  0  0  0  0  0  0  0  0  0
    3.0000    0.0000    0.0000 C   0  0  0  0  0  0  0  0  0  0  0  0
    1.5000    0.0000    0.0000 C   0  0  0  0  0  0  0  0  0  0  0  0
    0.7500   -1.2990    0.0000 C   0  0  0  0  0  0  0  0  0  0  0  0
   -0.7500   -1.2990    0.0000 C   0  0  0  0  0  0  0  0  0  0  0  0
   -1.5000   -2.5981    0.0000 N   0  0  0  0  0  0  0  0  0  0  0  0
   -3.0000   -2.5981    0.0000 C   0  0  0  0  0  0  0  0  0  0  0  0
   -3.7500   -1.2990    0.0000 N   0  0  0  0  0  0  0  0  0  0  0  0
   -5.2500   -1.2990    0.0000 C   0  0  0  0  0  0  0  0  0  0  0  0
   -6.0000   -2.5981    0.0000 N   0  0  0  0  0  0  0  0  0  0  0  0
   -5.2500   -3.8971    0.0000 C   0  0  0  0  0  0  0  0  0  0  0  0
   -3.7500   -3.8971    0.0000 N   0  0  0  0  0  0  0  0  0  0  0  0
   -6.0000   -5.1962    0.0000 C   0  0  0  0  0  0  0  0  0  0  0  0
   -7.5000   -5.1962    0.0000 C   0  0  0  0  0  0  0  0  0  0  0  0
   -8.2500   -6.4952    0.0000 C   0  0  0  0  0  0  0  0  0  0  0  0
   -7.5000   -7.7942    0.0000 C   0  0  0  0  0  0  0  0  0  0  0  0
   -6.0000   -7.7942    0.0000 C   0  0  0  0  0  0  0  0  0  0  0  0
   -5.2500   -6.4952    0.0000 C   0  0  0  0  0  0  0  0  0  0  0  0
   -1.5000    0.0000    0.0000 C   0  0  0  0  0  0  0  0  0  0  0  0
   -0.7500    1.2990    0.0000 C   0  0  0  0  0  0  0  0  0  0  0  0
    0.7500    1.2990    0.0000 C   0  0  0  0  0  0  0  0  0  0  0  0
    1.5000    2.5981    0.0000 O   0  0  0  0  0  0  0  0  0  0  0  0
  1  2  1  0
  2  3  1  0
  3  4  2  0
  4  5  1  0
  5  6  1  0
  6  7  1  0
  7  8  2  0
  8  9  1  0
  9 10  2  0
 10 11  1  0
 11 12  2  0
 11 13  1  0
 13 14  2  0
 14 15  1  0
 15 16  2  0
 16 17  1  0
 17 18  2  0
  5 19  2  0
 19 20  1  0
 20 21  2  0
 21 22  1  0
 21  3  1  0
 12  7  1  0
 18 13  1  0
M  END
>  <Molecule>  (317) 
CHEMBL1980246

>  <Standard Type>  (317) 
Ki

>  <Standard Relation>  (317) 
>

>  <Standard Value>  (317) 
5011.87

>  <Standard Units>  (317) 
nM

>  <pChEMBL Value>  (317) 
nan

>  <Comment>  (317) 
inactive

>  <Compound Key>  (317) 
SID103905083

>  <Assay>  (317) 
CHEMBL1963742

>  <Assay Description>  (317) 
PUBCHEM_BIOASSAY: Navigating the Kinome. (Class of assay: other) Panel member name: JAK3

>  <BAO Format>  (317) 
assay format

>  <Target>  (317) 
CHEMBL2148

>  <Target Pref. Name>  (317) 
Tyrosine-protein kinase JAK3

>  <Target Organism>  (317) 
Homo sapiens

>  <Target Type>  (317) 
SINGLE PROTEIN

>  <Document>  (317) 
CHEMBL1201862

>  <Source>  (317) 
PubChem BioAssays

>  <Max Phase>  (317) 
0

>  <#Ro5 Violations>  (317) 
0

>  <Molecular Weight>  (317) 
293.33

>  <Ligand Efficiency BEI>  (317) 
nan

>  <Ligand Efficiency LE>  (317) 
nan

>  <Ligand Efficiency LLE>  (317) 
nan

>  <Ligand Efficiency SEI>  (317) 
nan

>  <ALogP>  (317) 
2.45

>  <Assay Organism>  (317) 
nan

>  <Assay Tissue ChEMBL ID>  (317) 
nan

>  <Assay Tissue Name>  (317) 
nan

>  <Assay Cell Type>  (317) 
nan

>  <Assay Subcellular Fraction>  (317) 
nan

>  <Organism Tax ID>  (317) 
9606

>  <BAO Format ID>  (317) 
BAO_0000019

>  <Published Type>  (317) 
nan

>  <Published Relation>  (317) 
nan

>  <Published Value>  (317) 
nan

>  <Published Units>  (317) 
nan

>  <Canonical Smiles>  (317) 
NCc1cc(Nc2ncnc(n2)c3ccccc3)ccc1O

>  <Data Validity Comment>  (317) 
nan

>  <Document Journal>  (317) 
nan

>  <Document Year>  (317) 
nan

>  <SRC ID>  (317) 
7

>  <UO Units>  (317) 
UO_0000065

>  <Potential Duplicate>  (317) 
False

>  <Class>  (317) 
0

$$$$

     RDKit          2D

 20 22  0  0  0  0  0  0  0  0999 V2000
   -5.7221   -1.8037    0.0000 N   0  0  0  0  0  0  0  0  0  0  0  0
   -4.4231   -2.5537    0.0000 C   0  0  0  0  0  0  0  0  0  0  0  0
   -4.4231   -4.0537    0.0000 O   0  0  0  0  0  0  0  0  0  0  0  0
   -3.1240   -1.8037    0.0000 C   0  0  0  0  0  0  0  0  0  0  0  0
   -1.7537   -2.4138    0.0000 C   0  0  0  0  0  0  0  0  0  0  0  0
   -0.7500   -1.2990    0.0000 C   0  0  0  0  0  0  0  0  0  0  0  0
    0.7500   -1.2990    0.0000 C   0  0  0  0  0  0  0  0  0  0  0  0
    1.5000    0.0000    0.0000 C   0  0  0  0  0  0  0  0  0  0  0  0
    0.7500    1.2990    0.0000 N   0  0  0  0  0  0  0  0  0  0  0  0
   -0.7500    1.2990    0.0000 C   0  0  0  0  0  0  0  0  0  0  0  0
   -1.5000    0.0000    0.0000 C   0  0  0  0  0  0  0  0  0  0  0  0
   -2.9672   -0.3119    0.0000 S   0  0  0  0  0  0  0  0  0  0  0  0
    1.5000   -2.5981    0.0000 C   0  0  0  0  0  0  0  0  0  0  0  0
    0.7500   -3.8971    0.0000 C   0  0  0  0  0  0  0  0  0  0  0  0
    1.5000   -5.1962    0.0000 C   0  0  0  0  0  0  0  0  0  0  0  0
    3.0000   -5.1962    0.0000 C   0  0  0  0  0  0  0  0  0  0  0  0
    3.7500   -6.4952    0.0000 F   0  0  0  0  0  0  0  0  0  0  0  0
    3.7500   -3.8971    0.0000 C   0  0  0  0  0  0  0  0  0  0  0  0
    3.0000   -2.5981    0.0000 C   0  0  0  0  0  0  0  0  0  0  0  0
    3.7500   -1.2990    0.0000 F   0  0  0  0  0  0  0  0  0  0  0  0
  1  2  1  0
  2  3  2  0
  2  4  1  0
  4  5  2  0
  5  6  1  0
  6  7  2  0
  7  8  1  0
  8  9  2  0
  9 10  1  0
 10 11  2  0
 11 12  1  0
  7 13  1  0
 13 14  2  0
 14 15  1  0
 15 16  2  0
 16 17  1  0
 16 18  1  0
 18 19  2  0
 19 20  1  0
 12  4  1  0
 11  6  1  0
 19 13  1  0
M  END
>  <Molecule>  (318) 
CHEMBL1975787

>  <Standard Type>  (318) 
Ki

>  <Standard Relation>  (318) 
>

>  <Standard Value>  (318) 
1584.89

>  <Standard Units>  (318) 
nM

>  <pChEMBL Value>  (318) 
nan

>  <Comment>  (318) 
inactive

>  <Compound Key>  (318) 
SID103905044

>  <Assay>  (318) 
CHEMBL1963742

>  <Assay Description>  (318) 
PUBCHEM_BIOASSAY: Navigating the Kinome. (Class of assay: other) Panel member name: JAK3

>  <BAO Format>  (318) 
assay format

>  <Target>  (318) 
CHEMBL2148

>  <Target Pref. Name>  (318) 
Tyrosine-protein kinase JAK3

>  <Target Organism>  (318) 
Homo sapiens

>  <Target Type>  (318) 
SINGLE PROTEIN

>  <Document>  (318) 
CHEMBL1201862

>  <Source>  (318) 
PubChem BioAssays

>  <Max Phase>  (318) 
0

>  <#Ro5 Violations>  (318) 
0

>  <Molecular Weight>  (318) 
290.29

>  <Ligand Efficiency BEI>  (318) 
nan

>  <Ligand Efficiency LE>  (318) 
nan

>  <Ligand Efficiency LLE>  (318) 
nan

>  <Ligand Efficiency SEI>  (318) 
nan

>  <ALogP>  (318) 
3.34

>  <Assay Organism>  (318) 
nan

>  <Assay Tissue ChEMBL ID>  (318) 
nan

>  <Assay Tissue Name>  (318) 
nan

>  <Assay Cell Type>  (318) 
nan

>  <Assay Subcellular Fraction>  (318) 
nan

>  <Organism Tax ID>  (318) 
9606

>  <BAO Format ID>  (318) 
BAO_0000019

>  <Published Type>  (318) 
nan

>  <Published Relation>  (318) 
nan

>  <Published Value>  (318) 
nan

>  <Published Units>  (318) 
nan

>  <Canonical Smiles>  (318) 
NC(=O)c1cc2c(cncc2s1)c3ccc(F)cc3F

>  <Data Validity Comment>  (318) 
nan

>  <Document Journal>  (318) 
nan

>  <Document Year>  (318) 
nan

>  <SRC ID>  (318) 
7

>  <UO Units>  (318) 
UO_0000065

>  <Potential Duplicate>  (318) 
False

>  <Class>  (318) 
0

$$$$

     RDKit          2D

 16 18  0  0  0  0  0  0  0  0999 V2000
    3.0000    0.0000    0.0000 Br  0  0  0  0  0  0  0  0  0  0  0  0
    1.5000    0.0000    0.0000 C   0  0  0  0  0  0  0  0  0  0  0  0
    0.7500   -1.2990    0.0000 C   0  0  0  0  0  0  0  0  0  0  0  0
   -0.7500   -1.2990    0.0000 C   0  0  0  0  0  0  0  0  0  0  0  0
   -1.5000    0.0000    0.0000 C   0  0  0  0  0  0  0  0  0  0  0  0
   -2.9672    0.3119    0.0000 N   0  0  0  0  0  0  0  0  0  0  0  0
   -3.1240    1.8037    0.0000 N   0  0  0  0  0  0  0  0  0  0  0  0
   -1.7537    2.4138    0.0000 C   0  0  0  0  0  0  0  0  0  0  0  0
   -1.4418    3.8810    0.0000 C   0  0  0  0  0  0  0  0  0  0  0  0
   -0.0152    4.3445    0.0000 C   0  0  0  0  0  0  0  0  0  0  0  0
    0.2966    5.8117    0.0000 C   0  0  0  0  0  0  0  0  0  0  0  0
   -0.8181    6.8154    0.0000 C   0  0  0  0  0  0  0  0  0  0  0  0
   -2.2447    6.3519    0.0000 C   0  0  0  0  0  0  0  0  0  0  0  0
   -2.5565    4.8847    0.0000 C   0  0  0  0  0  0  0  0  0  0  0  0
   -0.7500    1.2990    0.0000 C   0  0  0  0  0  0  0  0  0  0  0  0
    0.7500    1.2990    0.0000 C   0  0  0  0  0  0  0  0  0  0  0  0
  1  2  1  0
  2  3  2  0
  3  4  1  0
  4  5  2  0
  5  6  1  0
  6  7  1  0
  7  8  2  0
  8  9  1  0
  9 10  2  0
 10 11  1  0
 11 12  2  0
 12 13  1  0
 13 14  2  0
  8 15  1  0
 15 16  2  0
 16  2  1  0
 15  5  1  0
 14  9  1  0
M  END
>  <Molecule>  (319) 
CHEMBL1994074

>  <Standard Type>  (319) 
Ki

>  <Standard Relation>  (319) 
>

>  <Standard Value>  (319) 
1584.89

>  <Standard Units>  (319) 
nM

>  <pChEMBL Value>  (319) 
nan

>  <Comment>  (319) 
inactive

>  <Compound Key>  (319) 
SID103904963

>  <Assay>  (319) 
CHEMBL1963742

>  <Assay Description>  (319) 
PUBCHEM_BIOASSAY: Navigating the Kinome. (Class of assay: other) Panel member name: JAK3

>  <BAO Format>  (319) 
assay format

>  <Target>  (319) 
CHEMBL2148

>  <Target Pref. Name>  (319) 
Tyrosine-protein kinase JAK3

>  <Target Organism>  (319) 
Homo sapiens

>  <Target Type>  (319) 
SINGLE PROTEIN

>  <Document>  (319) 
CHEMBL1201862

>  <Source>  (319) 
PubChem BioAssays

>  <Max Phase>  (319) 
0

>  <#Ro5 Violations>  (319) 
0

>  <Molecular Weight>  (319) 
273.13

>  <Ligand Efficiency BEI>  (319) 
nan

>  <Ligand Efficiency LE>  (319) 
nan

>  <Ligand Efficiency LLE>  (319) 
nan

>  <Ligand Efficiency SEI>  (319) 
nan

>  <ALogP>  (319) 
3.99

>  <Assay Organism>  (319) 
nan

>  <Assay Tissue ChEMBL ID>  (319) 
nan

>  <Assay Tissue Name>  (319) 
nan

>  <Assay Cell Type>  (319) 
nan

>  <Assay Subcellular Fraction>  (319) 
nan

>  <Organism Tax ID>  (319) 
9606

>  <BAO Format ID>  (319) 
BAO_0000019

>  <Published Type>  (319) 
nan

>  <Published Relation>  (319) 
nan

>  <Published Value>  (319) 
nan

>  <Published Units>  (319) 
nan

>  <Canonical Smiles>  (319) 
Brc1ccc2[nH]nc(c3ccccc3)c2c1

>  <Data Validity Comment>  (319) 
nan

>  <Document Journal>  (319) 
nan

>  <Document Year>  (319) 
nan

>  <SRC ID>  (319) 
7

>  <UO Units>  (319) 
UO_0000065

>  <Potential Duplicate>  (319) 
False

>  <Class>  (319) 
0

$$$$

     RDKit          2D

 26 29  0  0  0  0  0  0  0  0999 V2000
    3.7500   -3.8971    0.0000 F   0  0  0  0  0  0  0  0  0  0  0  0
    3.0000   -5.1962    0.0000 C   0  0  0  0  0  0  0  0  0  0  0  0
    3.7500   -6.4952    0.0000 C   0  0  0  0  0  0  0  0  0  0  0  0
    3.0000   -7.7942    0.0000 C   0  0  0  0  0  0  0  0  0  0  0  0
    1.5000   -7.7942    0.0000 C   0  0  0  0  0  0  0  0  0  0  0  0
    0.7500   -6.4952    0.0000 C   0  0  0  0  0  0  0  0  0  0  0  0
   -0.7500   -6.4952    0.0000 F   0  0  0  0  0  0  0  0  0  0  0  0
    1.5000   -5.1962    0.0000 C   0  0  0  0  0  0  0  0  0  0  0  0
    0.7500   -3.8971    0.0000 C   0  0  0  0  0  0  0  0  0  0  0  0
   -0.7500   -3.8971    0.0000 O   0  0  0  0  0  0  0  0  0  0  0  0
    1.5000   -2.5981    0.0000 N   0  0  0  0  0  0  0  0  0  0  0  0
    0.7500   -1.2990    0.0000 C   0  0  0  0  0  0  0  0  0  0  0  0
    1.5000    0.0000    0.0000 C   0  0  0  0  0  0  0  0  0  0  0  0
    0.7500    1.2990    0.0000 N   0  0  0  0  0  0  0  0  0  0  0  0
   -0.7500    1.2990    0.0000 C   0  0  0  0  0  0  0  0  0  0  0  0
   -1.7537    2.4138    0.0000 N   0  0  0  0  0  0  0  0  0  0  0  0
   -3.1240    1.8037    0.0000 C   0  0  0  0  0  0  0  0  0  0  0  0
   -2.9672    0.3119    0.0000 C   0  0  0  0  0  0  0  0  0  0  0  0
   -4.0819   -0.6918    0.0000 C   0  0  0  0  0  0  0  0  0  0  0  0
   -5.5085   -0.2283    0.0000 C   0  0  0  0  0  0  0  0  0  0  0  0
   -6.6232   -1.2320    0.0000 C   0  0  0  0  0  0  0  0  0  0  0  0
   -6.3114   -2.6992    0.0000 C   0  0  0  0  0  0  0  0  0  0  0  0
   -4.8848   -3.1627    0.0000 C   0  0  0  0  0  0  0  0  0  0  0  0
   -3.7701   -2.1590    0.0000 C   0  0  0  0  0  0  0  0  0  0  0  0
   -1.5000    0.0000    0.0000 C   0  0  0  0  0  0  0  0  0  0  0  0
   -0.7500   -1.2990    0.0000 C   0  0  0  0  0  0  0  0  0  0  0  0
  1  2  1  0
  2  3  2  0
  3  4  1  0
  4  5  2  0
  5  6  1  0
  6  7  1  0
  6  8  2  0
  8  9  1  0
  9 10  2  0
  9 11  1  0
 11 12  1  0
 12 13  2  0
 13 14  1  0
 14 15  2  0
 15 16  1  0
 16 17  1  0
 17 18  2  0
 18 19  1  0
 19 20  2  0
 20 21  1  0
 21 22  2  0
 22 23  1  0
 23 24  2  0
 18 25  1  0
 25 26  2  0
  8  2  1  0
 26 12  1  0
 25 15  1  0
 24 19  1  0
M  END
>  <Molecule>  (320) 
CHEMBL1996979

>  <Standard Type>  (320) 
Ki

>  <Standard Relation>  (320) 
>

>  <Standard Value>  (320) 
1584.89

>  <Standard Units>  (320) 
nM

>  <pChEMBL Value>  (320) 
nan

>  <Comment>  (320) 
inactive

>  <Compound Key>  (320) 
SID103904196

>  <Assay>  (320) 
CHEMBL1963742

>  <Assay Description>  (320) 
PUBCHEM_BIOASSAY: Navigating the Kinome. (Class of assay: other) Panel member name: JAK3

>  <BAO Format>  (320) 
assay format

>  <Target>  (320) 
CHEMBL2148

>  <Target Pref. Name>  (320) 
Tyrosine-protein kinase JAK3

>  <Target Organism>  (320) 
Homo sapiens

>  <Target Type>  (320) 
SINGLE PROTEIN

>  <Document>  (320) 
CHEMBL1201862

>  <Source>  (320) 
PubChem BioAssays

>  <Max Phase>  (320) 
0

>  <#Ro5 Violations>  (320) 
0

>  <Molecular Weight>  (320) 
349.34

>  <Ligand Efficiency BEI>  (320) 
nan

>  <Ligand Efficiency LE>  (320) 
nan

>  <Ligand Efficiency LLE>  (320) 
nan

>  <Ligand Efficiency SEI>  (320) 
nan

>  <ALogP>  (320) 
4.76

>  <Assay Organism>  (320) 
nan

>  <Assay Tissue ChEMBL ID>  (320) 
nan

>  <Assay Tissue Name>  (320) 
nan

>  <Assay Cell Type>  (320) 
nan

>  <Assay Subcellular Fraction>  (320) 
nan

>  <Organism Tax ID>  (320) 
9606

>  <BAO Format ID>  (320) 
BAO_0000019

>  <Published Type>  (320) 
nan

>  <Published Relation>  (320) 
nan

>  <Published Value>  (320) 
nan

>  <Published Units>  (320) 
nan

>  <Canonical Smiles>  (320) 
Fc1cccc(F)c1C(=O)Nc2cnc3[nH]cc(c4ccccc4)c3c2

>  <Data Validity Comment>  (320) 
nan

>  <Document Journal>  (320) 
nan

>  <Document Year>  (320) 
nan

>  <SRC ID>  (320) 
7

>  <UO Units>  (320) 
UO_0000065

>  <Potential Duplicate>  (320) 
False

>  <Class>  (320) 
0

$$$$

     RDKit          2D

 31 34  0  0  0  0  0  0  0  0999 V2000
   -3.6304   -5.2500    0.0000 C   0  0  0  0  0  0  0  0  0  0  0  0
   -3.6304   -3.7500    0.0000 N   0  0  0  0  0  0  0  0  0  0  0  0
   -2.3313   -3.0000    0.0000 C   0  0  0  0  0  0  0  0  0  0  0  0
   -1.0323   -3.7500    0.0000 O   0  0  0  0  0  0  0  0  0  0  0  0
   -2.3313   -1.5000    0.0000 C   0  0  0  0  0  0  0  0  0  0  0  0
   -3.6304   -0.7500    0.0000 C   0  0  0  0  0  0  0  0  0  0  0  0
   -3.6304    0.7500    0.0000 N   0  0  0  0  0  0  0  0  0  0  0  0
   -2.3313    1.5000    0.0000 C   0  0  0  0  0  0  0  0  0  0  0  0
   -2.3313    3.0000    0.0000 N   0  0  0  0  0  0  0  0  0  0  0  0
   -1.0323    0.7500    0.0000 C   0  0  0  0  0  0  0  0  0  0  0  0
    0.3943    1.2135    0.0000 C   0  0  0  0  0  0  0  0  0  0  0  0
    1.2760    0.0000    0.0000 C   0  0  0  0  0  0  0  0  0  0  0  0
    0.3943   -1.2135    0.0000 S   0  0  0  0  0  0  0  0  0  0  0  0
   -1.0323   -0.7500    0.0000 C   0  0  0  0  0  0  0  0  0  0  0  0
    0.8578    2.6401    0.0000 C   0  0  0  0  0  0  0  0  0  0  0  0
    2.3250    2.9520    0.0000 C   0  0  0  0  0  0  0  0  0  0  0  0
    2.7886    4.3786    0.0000 C   0  0  0  0  0  0  0  0  0  0  0  0
    1.7849    5.4933    0.0000 C   0  0  0  0  0  0  0  0  0  0  0  0
    2.2484    6.9199    0.0000 N   0  0  0  0  0  0  0  0  0  0  0  0
    3.7156    7.2317    0.0000 C   0  0  0  0  0  0  0  0  0  0  0  0
    4.7193    6.1170    0.0000 O   0  0  0  0  0  0  0  0  0  0  0  0
    4.1791    8.6583    0.0000 N   0  0  0  0  0  0  0  0  0  0  0  0
    5.6464    8.9702    0.0000 C   0  0  0  0  0  0  0  0  0  0  0  0
    6.6501    7.8555    0.0000 C   0  0  0  0  0  0  0  0  0  0  0  0
    8.1173    8.1673    0.0000 C   0  0  0  0  0  0  0  0  0  0  0  0
    8.5808    9.5939    0.0000 C   0  0  0  0  0  0  0  0  0  0  0  0
    7.5771   10.7086    0.0000 C   0  0  0  0  0  0  0  0  0  0  0  0
    8.0406   12.1352    0.0000 Cl  0  0  0  0  0  0  0  0  0  0  0  0
    6.1099   10.3968    0.0000 C   0  0  0  0  0  0  0  0  0  0  0  0
    0.3177    5.1814    0.0000 C   0  0  0  0  0  0  0  0  0  0  0  0
   -0.1459    3.7548    0.0000 C   0  0  0  0  0  0  0  0  0  0  0  0
  1  2  1  0
  2  3  1  0
  3  4  2  0
  3  5  1  0
  5  6  2  0
  6  7  1  0
  7  8  2  0
  8  9  1  0
  8 10  1  0
 10 11  1  0
 11 12  2  0
 12 13  1  0
 13 14  1  0
 11 15  1  0
 15 16  2  0
 16 17  1  0
 17 18  2  0
 18 19  1  0
 19 20  1  0
 20 21  2  0
 20 22  1  0
 22 23  1  0
 23 24  2  0
 24 25  1  0
 25 26  2  0
 26 27  1  0
 27 28  1  0
 27 29  2  0
 18 30  1  0
 30 31  2  0
 14  5  1  0
 14 10  2  0
 31 15  1  0
 29 23  1  0
M  END
>  <Molecule>  (321) 
CHEMBL1982476

>  <Standard Type>  (321) 
Ki

>  <Standard Relation>  (321) 
=

>  <Standard Value>  (321) 
79.43

>  <Standard Units>  (321) 
nM

>  <pChEMBL Value>  (321) 
7.1

>  <Comment>  (321) 
active

>  <Compound Key>  (321) 
SID103904309

>  <Assay>  (321) 
CHEMBL1963742

>  <Assay Description>  (321) 
PUBCHEM_BIOASSAY: Navigating the Kinome. (Class of assay: other) Panel member name: JAK3

>  <BAO Format>  (321) 
assay format

>  <Target>  (321) 
CHEMBL2148

>  <Target Pref. Name>  (321) 
Tyrosine-protein kinase JAK3

>  <Target Organism>  (321) 
Homo sapiens

>  <Target Type>  (321) 
SINGLE PROTEIN

>  <Document>  (321) 
CHEMBL1201862

>  <Source>  (321) 
PubChem BioAssays

>  <Max Phase>  (321) 
0

>  <#Ro5 Violations>  (321) 
1

>  <Molecular Weight>  (321) 
451.94

>  <Ligand Efficiency BEI>  (321) 
nan

>  <Ligand Efficiency LE>  (321) 
nan

>  <Ligand Efficiency LLE>  (321) 
nan

>  <Ligand Efficiency SEI>  (321) 
nan

>  <ALogP>  (321) 
5.2

>  <Assay Organism>  (321) 
nan

>  <Assay Tissue ChEMBL ID>  (321) 
nan

>  <Assay Tissue Name>  (321) 
nan

>  <Assay Cell Type>  (321) 
nan

>  <Assay Subcellular Fraction>  (321) 
nan

>  <Organism Tax ID>  (321) 
9606

>  <BAO Format ID>  (321) 
BAO_0000019

>  <Published Type>  (321) 
nan

>  <Published Relation>  (321) 
nan

>  <Published Value>  (321) 
nan

>  <Published Units>  (321) 
nan

>  <Canonical Smiles>  (321) 
CNC(=O)c1cnc(N)c2c(csc12)c3ccc(NC(=O)Nc4cccc(Cl)c4)cc3

>  <Data Validity Comment>  (321) 
nan

>  <Document Journal>  (321) 
nan

>  <Document Year>  (321) 
nan

>  <SRC ID>  (321) 
7

>  <UO Units>  (321) 
UO_0000065

>  <Potential Duplicate>  (321) 
False

>  <Class>  (321) 
1

$$$$

     RDKit          2D

 26 30  0  0  0  0  0  0  0  0999 V2000
    3.0000    0.0000    0.0000 O   0  0  0  0  0  0  0  0  0  0  0  0
    1.5000    0.0000    0.0000 C   0  0  0  0  0  0  0  0  0  0  0  0
    0.7500   -1.2990    0.0000 C   0  0  0  0  0  0  0  0  0  0  0  0
   -0.7500   -1.2990    0.0000 C   0  0  0  0  0  0  0  0  0  0  0  0
   -1.5000    0.0000    0.0000 C   0  0  0  0  0  0  0  0  0  0  0  0
   -2.9672    0.3119    0.0000 N   0  0  0  0  0  0  0  0  0  0  0  0
   -3.1240    1.8037    0.0000 C   0  0  0  0  0  0  0  0  0  0  0  0
   -4.3375    2.6853    0.0000 C   0  0  0  0  0  0  0  0  0  0  0  0
   -4.1807    4.1771    0.0000 C   0  0  0  0  0  0  0  0  0  0  0  0
   -5.3943    5.0588    0.0000 C   0  0  0  0  0  0  0  0  0  0  0  0
   -5.2375    6.5506    0.0000 C   0  0  0  0  0  0  0  0  0  0  0  0
   -6.4510    7.4322    0.0000 C   0  0  0  0  0  0  0  0  0  0  0  0
   -7.8213    6.8221    0.0000 C   0  0  0  0  0  0  0  0  0  0  0  0
   -7.9781    5.3304    0.0000 C   0  0  0  0  0  0  0  0  0  0  0  0
   -6.7646    4.4487    0.0000 C   0  0  0  0  0  0  0  0  0  0  0  0
   -6.9214    2.9569    0.0000 Cl  0  0  0  0  0  0  0  0  0  0  0  0
   -2.8104    4.7872    0.0000 C   0  0  0  0  0  0  0  0  0  0  0  0
   -2.3469    6.2138    0.0000 C   0  0  0  0  0  0  0  0  0  0  0  0
   -3.2286    7.4273    0.0000 O   0  0  0  0  0  0  0  0  0  0  0  0
   -0.8469    6.2138    0.0000 N   0  0  0  0  0  0  0  0  0  0  0  0
   -0.3834    4.7872    0.0000 C   0  0  0  0  0  0  0  0  0  0  0  0
    1.0432    4.3237    0.0000 O   0  0  0  0  0  0  0  0  0  0  0  0
   -1.5969    3.9055    0.0000 C   0  0  0  0  0  0  0  0  0  0  0  0
   -1.7537    2.4138    0.0000 C   0  0  0  0  0  0  0  0  0  0  0  0
   -0.7500    1.2990    0.0000 C   0  0  0  0  0  0  0  0  0  0  0  0
    0.7500    1.2990    0.0000 C   0  0  0  0  0  0  0  0  0  0  0  0
  1  2  1  0
  2  3  2  0
  3  4  1  0
  4  5  2  0
  5  6  1  0
  6  7  1  0
  7  8  2  0
  8  9  1  0
  9 10  1  0
 10 11  2  0
 11 12  1  0
 12 13  2  0
 13 14  1  0
 14 15  2  0
 15 16  1  0
  9 17  2  0
 17 18  1  0
 18 19  2  0
 18 20  1  0
 20 21  1  0
 21 22  2  0
 21 23  1  0
 23 24  2  0
 24 25  1  0
 25 26  2  0
 26  2  1  0
 25  5  1  0
 24  7  1  0
 15 10  1  0
 23 17  1  0
M  END
>  <Molecule>  (322) 
CHEMBL379975

>  <Standard Type>  (322) 
Ki

>  <Standard Relation>  (322) 
=

>  <Standard Value>  (322) 
251.19

>  <Standard Units>  (322) 
nM

>  <pChEMBL Value>  (322) 
6.6

>  <Comment>  (322) 
active

>  <Compound Key>  (322) 
SID103905557

>  <Assay>  (322) 
CHEMBL1963742

>  <Assay Description>  (322) 
PUBCHEM_BIOASSAY: Navigating the Kinome. (Class of assay: other) Panel member name: JAK3

>  <BAO Format>  (322) 
assay format

>  <Target>  (322) 
CHEMBL2148

>  <Target Pref. Name>  (322) 
Tyrosine-protein kinase JAK3

>  <Target Organism>  (322) 
Homo sapiens

>  <Target Type>  (322) 
SINGLE PROTEIN

>  <Document>  (322) 
CHEMBL1201862

>  <Source>  (322) 
PubChem BioAssays

>  <Max Phase>  (322) 
0

>  <#Ro5 Violations>  (322) 
0

>  <Molecular Weight>  (322) 
362.77

>  <Ligand Efficiency BEI>  (322) 
nan

>  <Ligand Efficiency LE>  (322) 
nan

>  <Ligand Efficiency LLE>  (322) 
nan

>  <Ligand Efficiency SEI>  (322) 
nan

>  <ALogP>  (322) 
4.23

>  <Assay Organism>  (322) 
nan

>  <Assay Tissue ChEMBL ID>  (322) 
nan

>  <Assay Tissue Name>  (322) 
nan

>  <Assay Cell Type>  (322) 
nan

>  <Assay Subcellular Fraction>  (322) 
nan

>  <Organism Tax ID>  (322) 
9606

>  <BAO Format ID>  (322) 
BAO_0000019

>  <Published Type>  (322) 
nan

>  <Published Relation>  (322) 
nan

>  <Published Value>  (322) 
nan

>  <Published Units>  (322) 
nan

>  <Canonical Smiles>  (322) 
Oc1ccc2[nH]c3cc(c4ccccc4Cl)c5C(=O)NC(=O)c5c3c2c1

>  <Data Validity Comment>  (322) 
nan

>  <Document Journal>  (322) 
nan

>  <Document Year>  (322) 
nan

>  <SRC ID>  (322) 
7

>  <UO Units>  (322) 
UO_0000065

>  <Potential Duplicate>  (322) 
False

>  <Class>  (322) 
1

$$$$

     RDKit          2D

 31 35  0  0  0  0  0  0  0  0999 V2000
   -6.4289   -8.5179    0.0000 F   0  0  0  0  0  0  0  0  0  0  0  0
   -6.1170   -7.0506    0.0000 C   0  0  0  0  0  0  0  0  0  0  0  0
   -7.2317   -6.0469    0.0000 C   0  0  0  0  0  0  0  0  0  0  0  0
   -6.9199   -4.5797    0.0000 C   0  0  0  0  0  0  0  0  0  0  0  0
   -5.4933   -4.1162    0.0000 C   0  0  0  0  0  0  0  0  0  0  0  0
   -4.3786   -5.1199    0.0000 C   0  0  0  0  0  0  0  0  0  0  0  0
   -4.6904   -6.5871    0.0000 C   0  0  0  0  0  0  0  0  0  0  0  0
   -2.9520   -4.6564    0.0000 C   0  0  0  0  0  0  0  0  0  0  0  0
   -1.8373   -5.6601    0.0000 O   0  0  0  0  0  0  0  0  0  0  0  0
   -2.6401   -3.1891    0.0000 N   0  0  0  0  0  0  0  0  0  0  0  0
   -1.2135   -2.7256    0.0000 C   0  0  0  0  0  0  0  0  0  0  0  0
    0.0000   -3.6073    0.0000 N   0  0  0  0  0  0  0  0  0  0  0  0
    1.2135   -2.7256    0.0000 N   0  0  0  0  0  0  0  0  0  0  0  0
    0.7500   -1.2990    0.0000 C   0  0  0  0  0  0  0  0  0  0  0  0
    1.5000    0.0000    0.0000 C   0  0  0  0  0  0  0  0  0  0  0  0
    0.7500    1.2990    0.0000 C   0  0  0  0  0  0  0  0  0  0  0  0
   -0.7500    1.2990    0.0000 C   0  0  0  0  0  0  0  0  0  0  0  0
   -1.5000    0.0000    0.0000 C   0  0  0  0  0  0  0  0  0  0  0  0
   -0.7500   -1.2990    0.0000 C   0  0  0  0  0  0  0  0  0  0  0  0
   -1.5000    2.5981    0.0000 C   0  0  0  0  0  0  0  0  0  0  0  0
   -2.9918    2.7549    0.0000 C   0  0  0  0  0  0  0  0  0  0  0  0
   -3.3037    4.2221    0.0000 N   0  0  0  0  0  0  0  0  0  0  0  0
   -4.6740    4.8322    0.0000 C   0  0  0  0  0  0  0  0  0  0  0  0
   -4.8308    6.3240    0.0000 C   0  0  0  0  0  0  0  0  0  0  0  0
   -3.6172    7.2057    0.0000 C   0  0  0  0  0  0  0  0  0  0  0  0
   -3.7740    8.6974    0.0000 C   0  0  0  0  0  0  0  0  0  0  0  0
   -5.1443    9.3075    0.0000 C   0  0  0  0  0  0  0  0  0  0  0  0
   -6.3579    8.4259    0.0000 C   0  0  0  0  0  0  0  0  0  0  0  0
   -6.2011    6.9341    0.0000 C   0  0  0  0  0  0  0  0  0  0  0  0
   -2.0046    4.9721    0.0000 N   0  0  0  0  0  0  0  0  0  0  0  0
   -0.8899    3.9684    0.0000 N   0  0  0  0  0  0  0  0  0  0  0  0
  1  2  1  0
  2  3  2  0
  3  4  1  0
  4  5  2  0
  5  6  1  0
  6  7  2  0
  6  8  1  0
  8  9  2  0
  8 10  1  0
 10 11  1  0
 11 12  2  0
 12 13  1  0
 13 14  1  0
 14 15  2  0
 15 16  1  0
 16 17  2  0
 17 18  1  0
 18 19  2  0
 17 20  1  0
 20 21  2  0
 21 22  1  0
 22 23  1  0
 23 24  1  0
 24 25  2  0
 25 26  1  0
 26 27  2  0
 27 28  1  0
 28 29  2  0
 22 30  1  0
 30 31  2  0
  7  2  1  0
 19 11  1  0
 19 14  1  0
 31 20  1  0
 29 24  1  0
M  END
>  <Molecule>  (323) 
CHEMBL2003638

>  <Standard Type>  (323) 
Ki

>  <Standard Relation>  (323) 
>

>  <Standard Value>  (323) 
2511.89

>  <Standard Units>  (323) 
nM

>  <pChEMBL Value>  (323) 
nan

>  <Comment>  (323) 
inactive

>  <Compound Key>  (323) 
SID103904514

>  <Assay>  (323) 
CHEMBL1963742

>  <Assay Description>  (323) 
PUBCHEM_BIOASSAY: Navigating the Kinome. (Class of assay: other) Panel member name: JAK3

>  <BAO Format>  (323) 
assay format

>  <Target>  (323) 
CHEMBL2148

>  <Target Pref. Name>  (323) 
Tyrosine-protein kinase JAK3

>  <Target Organism>  (323) 
Homo sapiens

>  <Target Type>  (323) 
SINGLE PROTEIN

>  <Document>  (323) 
CHEMBL1201862

>  <Source>  (323) 
PubChem BioAssays

>  <Max Phase>  (323) 
0

>  <#Ro5 Violations>  (323) 
0

>  <Molecular Weight>  (323) 
412.43

>  <Ligand Efficiency BEI>  (323) 
nan

>  <Ligand Efficiency LE>  (323) 
nan

>  <Ligand Efficiency LLE>  (323) 
nan

>  <Ligand Efficiency SEI>  (323) 
nan

>  <ALogP>  (323) 
4.26

>  <Assay Organism>  (323) 
nan

>  <Assay Tissue ChEMBL ID>  (323) 
nan

>  <Assay Tissue Name>  (323) 
nan

>  <Assay Cell Type>  (323) 
nan

>  <Assay Subcellular Fraction>  (323) 
nan

>  <Organism Tax ID>  (323) 
9606

>  <BAO Format ID>  (323) 
BAO_0000019

>  <Published Type>  (323) 
nan

>  <Published Relation>  (323) 
nan

>  <Published Value>  (323) 
nan

>  <Published Units>  (323) 
nan

>  <Canonical Smiles>  (323) 
Fc1cccc(c1)C(=O)Nc2n[nH]c3ccc(cc23)c4cn(Cc5ccccc5)nn4

>  <Data Validity Comment>  (323) 
nan

>  <Document Journal>  (323) 
nan

>  <Document Year>  (323) 
nan

>  <SRC ID>  (323) 
7

>  <UO Units>  (323) 
UO_0000065

>  <Potential Duplicate>  (323) 
False

>  <Class>  (323) 
0

$$$$

     RDKit          2D

 29 33  0  0  0  0  0  0  0  0999 V2000
   -2.6401   -3.1891    0.0000 C   0  0  0  0  0  0  0  0  0  0  0  0
   -1.2135   -2.7256    0.0000 C   0  0  0  0  0  0  0  0  0  0  0  0
   -0.0000   -3.6073    0.0000 N   0  0  0  0  0  0  0  0  0  0  0  0
    1.2135   -2.7256    0.0000 N   0  0  0  0  0  0  0  0  0  0  0  0
    0.7500   -1.2990    0.0000 C   0  0  0  0  0  0  0  0  0  0  0  0
    1.5000    0.0000    0.0000 C   0  0  0  0  0  0  0  0  0  0  0  0
    0.7500    1.2990    0.0000 C   0  0  0  0  0  0  0  0  0  0  0  0
   -0.7500    1.2990    0.0000 C   0  0  0  0  0  0  0  0  0  0  0  0
   -1.5000    0.0000    0.0000 C   0  0  0  0  0  0  0  0  0  0  0  0
   -0.7500   -1.2990    0.0000 C   0  0  0  0  0  0  0  0  0  0  0  0
   -1.5000    2.5981    0.0000 C   0  0  0  0  0  0  0  0  0  0  0  0
   -2.9918    2.7549    0.0000 N   0  0  0  0  0  0  0  0  0  0  0  0
   -3.3037    4.2221    0.0000 N   0  0  0  0  0  0  0  0  0  0  0  0
   -2.0046    4.9721    0.0000 N   0  0  0  0  0  0  0  0  0  0  0  0
   -1.8478    6.4639    0.0000 C   0  0  0  0  0  0  0  0  0  0  0  0
   -3.0613    7.3456    0.0000 C   0  0  0  0  0  0  0  0  0  0  0  0
   -4.4317    6.7354    0.0000 C   0  0  0  0  0  0  0  0  0  0  0  0
   -5.6452    7.6171    0.0000 C   0  0  0  0  0  0  0  0  0  0  0  0
   -5.4884    9.1089    0.0000 C   0  0  0  0  0  0  0  0  0  0  0  0
   -4.1181    9.7190    0.0000 C   0  0  0  0  0  0  0  0  0  0  0  0
   -2.9046    8.8373    0.0000 C   0  0  0  0  0  0  0  0  0  0  0  0
   -0.8899    3.9684    0.0000 C   0  0  0  0  0  0  0  0  0  0  0  0
    0.5773    4.2803    0.0000 C   0  0  0  0  0  0  0  0  0  0  0  0
    1.5810    3.1655    0.0000 C   0  0  0  0  0  0  0  0  0  0  0  0
    3.0482    3.4774    0.0000 C   0  0  0  0  0  0  0  0  0  0  0  0
    3.5118    4.9040    0.0000 C   0  0  0  0  0  0  0  0  0  0  0  0
    4.9790    5.2159    0.0000 F   0  0  0  0  0  0  0  0  0  0  0  0
    2.5081    6.0187    0.0000 C   0  0  0  0  0  0  0  0  0  0  0  0
    1.0409    5.7068    0.0000 C   0  0  0  0  0  0  0  0  0  0  0  0
  1  2  1  0
  2  3  2  0
  3  4  1  0
  4  5  1  0
  5  6  2  0
  6  7  1  0
  7  8  2  0
  8  9  1  0
  9 10  2  0
  8 11  1  0
 11 12  1  0
 12 13  2  0
 13 14  1  0
 14 15  1  0
 15 16  1  0
 16 17  2  0
 17 18  1  0
 18 19  2  0
 19 20  1  0
 20 21  2  0
 14 22  1  0
 22 23  1  0
 23 24  2  0
 24 25  1  0
 25 26  2  0
 26 27  1  0
 26 28  1  0
 28 29  2  0
 10  2  1  0
 10  5  1  0
 22 11  2  0
 21 16  1  0
 29 23  1  0
M  END
>  <Molecule>  (324) 
CHEMBL1972339

>  <Standard Type>  (324) 
Ki

>  <Standard Relation>  (324) 
=

>  <Standard Value>  (324) 
199.53

>  <Standard Units>  (324) 
nM

>  <pChEMBL Value>  (324) 
6.7

>  <Comment>  (324) 
active

>  <Compound Key>  (324) 
SID103904521

>  <Assay>  (324) 
CHEMBL1963742

>  <Assay Description>  (324) 
PUBCHEM_BIOASSAY: Navigating the Kinome. (Class of assay: other) Panel member name: JAK3

>  <BAO Format>  (324) 
assay format

>  <Target>  (324) 
CHEMBL2148

>  <Target Pref. Name>  (324) 
Tyrosine-protein kinase JAK3

>  <Target Organism>  (324) 
Homo sapiens

>  <Target Type>  (324) 
SINGLE PROTEIN

>  <Document>  (324) 
CHEMBL1201862

>  <Source>  (324) 
PubChem BioAssays

>  <Max Phase>  (324) 
0

>  <#Ro5 Violations>  (324) 
0

>  <Molecular Weight>  (324) 
383.43

>  <Ligand Efficiency BEI>  (324) 
nan

>  <Ligand Efficiency LE>  (324) 
nan

>  <Ligand Efficiency LLE>  (324) 
nan

>  <Ligand Efficiency SEI>  (324) 
nan

>  <ALogP>  (324) 
4.98

>  <Assay Organism>  (324) 
nan

>  <Assay Tissue ChEMBL ID>  (324) 
nan

>  <Assay Tissue Name>  (324) 
nan

>  <Assay Cell Type>  (324) 
nan

>  <Assay Subcellular Fraction>  (324) 
nan

>  <Organism Tax ID>  (324) 
9606

>  <BAO Format ID>  (324) 
BAO_0000019

>  <Published Type>  (324) 
nan

>  <Published Relation>  (324) 
nan

>  <Published Value>  (324) 
nan

>  <Published Units>  (324) 
nan

>  <Canonical Smiles>  (324) 
Cc1n[nH]c2ccc(cc12)c3nnn(Cc4ccccc4)c3c5ccc(F)cc5

>  <Data Validity Comment>  (324) 
nan

>  <Document Journal>  (324) 
nan

>  <Document Year>  (324) 
nan

>  <SRC ID>  (324) 
7

>  <UO Units>  (324) 
UO_0000065

>  <Potential Duplicate>  (324) 
False

>  <Class>  (324) 
1

$$$$

     RDKit          2D

 22 24  0  0  0  0  0  0  0  0999 V2000
   -1.0496   -9.1759    0.0000 O   0  0  0  0  0  0  0  0  0  0  0  0
    0.3207   -8.5658    0.0000 C   0  0  0  0  0  0  0  0  0  0  0  0
    0.4775   -7.0740    0.0000 C   0  0  0  0  0  0  0  0  0  0  0  0
    1.8478   -6.4639    0.0000 C   0  0  0  0  0  0  0  0  0  0  0  0
    2.0046   -4.9721    0.0000 N   0  0  0  0  0  0  0  0  0  0  0  0
    3.3037   -4.2221    0.0000 C   0  0  0  0  0  0  0  0  0  0  0  0
    2.9918   -2.7549    0.0000 N   0  0  0  0  0  0  0  0  0  0  0  0
    1.5000   -2.5981    0.0000 C   0  0  0  0  0  0  0  0  0  0  0  0
    0.7500   -1.2990    0.0000 C   0  0  0  0  0  0  0  0  0  0  0  0
    1.5000    0.0000    0.0000 C   0  0  0  0  0  0  0  0  0  0  0  0
    0.7500    1.2990    0.0000 C   0  0  0  0  0  0  0  0  0  0  0  0
   -0.7500    1.2990    0.0000 C   0  0  0  0  0  0  0  0  0  0  0  0
   -1.5000    2.5981    0.0000 F   0  0  0  0  0  0  0  0  0  0  0  0
   -1.5000    0.0000    0.0000 C   0  0  0  0  0  0  0  0  0  0  0  0
   -0.7500   -1.2990    0.0000 C   0  0  0  0  0  0  0  0  0  0  0  0
    0.8899   -3.9684    0.0000 C   0  0  0  0  0  0  0  0  0  0  0  0
   -0.5773   -4.2803    0.0000 C   0  0  0  0  0  0  0  0  0  0  0  0
   -1.5810   -3.1655    0.0000 C   0  0  0  0  0  0  0  0  0  0  0  0
   -3.0482   -3.4774    0.0000 C   0  0  0  0  0  0  0  0  0  0  0  0
   -3.5118   -4.9040    0.0000 N   0  0  0  0  0  0  0  0  0  0  0  0
   -2.5081   -6.0187    0.0000 C   0  0  0  0  0  0  0  0  0  0  0  0
   -1.0409   -5.7068    0.0000 C   0  0  0  0  0  0  0  0  0  0  0  0
  1  2  1  0
  2  3  1  0
  3  4  1  0
  4  5  1  0
  5  6  1  0
  6  7  2  0
  7  8  1  0
  8  9  1  0
  9 10  2  0
 10 11  1  0
 11 12  2  0
 12 13  1  0
 12 14  1  0
 14 15  2  0
  8 16  2  0
 16 17  1  0
 17 18  2  0
 18 19  1  0
 19 20  2  0
 20 21  1  0
 21 22  2  0
 16  5  1  0
 15  9  1  0
 22 17  1  0
M  END
>  <Molecule>  (325) 
CHEMBL2004871

>  <Standard Type>  (325) 
Ki

>  <Standard Relation>  (325) 
>

>  <Standard Value>  (325) 
1584.89

>  <Standard Units>  (325) 
nM

>  <pChEMBL Value>  (325) 
nan

>  <Comment>  (325) 
inactive

>  <Compound Key>  (325) 
SID103905252

>  <Assay>  (325) 
CHEMBL1963742

>  <Assay Description>  (325) 
PUBCHEM_BIOASSAY: Navigating the Kinome. (Class of assay: other) Panel member name: JAK3

>  <BAO Format>  (325) 
assay format

>  <Target>  (325) 
CHEMBL2148

>  <Target Pref. Name>  (325) 
Tyrosine-protein kinase JAK3

>  <Target Organism>  (325) 
Homo sapiens

>  <Target Type>  (325) 
SINGLE PROTEIN

>  <Document>  (325) 
CHEMBL1201862

>  <Source>  (325) 
PubChem BioAssays

>  <Max Phase>  (325) 
0

>  <#Ro5 Violations>  (325) 
0

>  <Molecular Weight>  (325) 
297.33

>  <Ligand Efficiency BEI>  (325) 
nan

>  <Ligand Efficiency LE>  (325) 
nan

>  <Ligand Efficiency LLE>  (325) 
nan

>  <Ligand Efficiency SEI>  (325) 
nan

>  <ALogP>  (325) 
3.13

>  <Assay Organism>  (325) 
nan

>  <Assay Tissue ChEMBL ID>  (325) 
nan

>  <Assay Tissue Name>  (325) 
nan

>  <Assay Cell Type>  (325) 
nan

>  <Assay Subcellular Fraction>  (325) 
nan

>  <Organism Tax ID>  (325) 
9606

>  <BAO Format ID>  (325) 
BAO_0000019

>  <Published Type>  (325) 
nan

>  <Published Relation>  (325) 
nan

>  <Published Value>  (325) 
nan

>  <Published Units>  (325) 
nan

>  <Canonical Smiles>  (325) 
OCCCn1cnc(c2ccc(F)cc2)c1c3ccncc3

>  <Data Validity Comment>  (325) 
nan

>  <Document Journal>  (325) 
nan

>  <Document Year>  (325) 
nan

>  <SRC ID>  (325) 
7

>  <UO Units>  (325) 
UO_0000065

>  <Potential Duplicate>  (325) 
False

>  <Class>  (325) 
0

$$$$

     RDKit          2D

 43 49  0  0  0  0  0  0  0  0999 V2000
    1.9788    6.5212    0.0000 O   0  0  0  0  0  0  0  0  0  0  0  0
    1.5153    7.9478    0.0000 C   0  0  0  0  0  0  0  0  0  0  0  0
    2.5190    9.0625    0.0000 C   0  0  0  0  0  0  0  0  0  0  0  0
    3.9862    8.7506    0.0000 C   0  0  0  0  0  0  0  0  0  0  0  0
    4.4497    7.3241    0.0000 C   0  0  0  0  0  0  0  0  0  0  0  0
    5.9169    7.0122    0.0000 C   0  0  0  0  0  0  0  0  0  0  0  0
    6.9206    8.1269    0.0000 C   0  0  0  0  0  0  0  0  0  0  0  0
    6.4571    9.5535    0.0000 C   0  0  0  0  0  0  0  0  0  0  0  0
    4.9899    9.8654    0.0000 C   0  0  0  0  0  0  0  0  0  0  0  0
    0.0481    8.2597    0.0000 N   0  0  0  0  0  0  0  0  0  0  0  0
   -0.9556    7.1449    0.0000 C   0  0  0  0  0  0  0  0  0  0  0  0
   -2.4229    7.4568    0.0000 C   0  0  0  0  0  0  0  0  0  0  0  0
   -3.4266    6.3421    0.0000 C   0  0  0  0  0  0  0  0  0  0  0  0
   -2.9630    4.9155    0.0000 C   0  0  0  0  0  0  0  0  0  0  0  0
   -1.4958    4.6036    0.0000 C   0  0  0  0  0  0  0  0  0  0  0  0
   -0.4921    5.7184    0.0000 C   0  0  0  0  0  0  0  0  0  0  0  0
   -1.0323    3.1771    0.0000 C   0  0  0  0  0  0  0  0  0  0  0  0
    0.3943    2.7135    0.0000 N   0  0  0  0  0  0  0  0  0  0  0  0
    0.3943    1.2135    0.0000 C   0  0  0  0  0  0  0  0  0  0  0  0
    1.2760    0.0000    0.0000 S   0  0  0  0  0  0  0  0  0  0  0  0
    0.3943   -1.2135    0.0000 C   0  0  0  0  0  0  0  0  0  0  0  0
   -1.0323   -0.7500    0.0000 C   0  0  0  0  0  0  0  0  0  0  0  0
   -1.0323    0.7500    0.0000 N   0  0  0  0  0  0  0  0  0  0  0  0
   -1.9140    1.9635    0.0000 C   0  0  0  0  0  0  0  0  0  0  0  0
   -3.4140    1.9635    0.0000 C   0  0  0  0  0  0  0  0  0  0  0  0
   -4.1640    3.2626    0.0000 C   0  0  0  0  0  0  0  0  0  0  0  0
   -5.6640    3.2626    0.0000 C   0  0  0  0  0  0  0  0  0  0  0  0
   -6.4140    1.9635    0.0000 N   0  0  0  0  0  0  0  0  0  0  0  0
   -5.6640    0.6645    0.0000 C   0  0  0  0  0  0  0  0  0  0  0  0
   -6.4140   -0.6346    0.0000 N   0  0  0  0  0  0  0  0  0  0  0  0
   -7.9140   -0.6346    0.0000 C   0  0  0  0  0  0  0  0  0  0  0  0
   -8.6640    0.6645    0.0000 C   0  0  0  0  0  0  0  0  0  0  0  0
  -10.1640    0.6645    0.0000 C   0  0  0  0  0  0  0  0  0  0  0  0
  -10.9140   -0.6346    0.0000 C   0  0  0  0  0  0  0  0  0  0  0  0
  -10.1640   -1.9336    0.0000 C   0  0  0  0  0  0  0  0  0  0  0  0
   -8.6640   -1.9336    0.0000 C   0  0  0  0  0  0  0  0  0  0  0  0
  -10.9140   -3.2326    0.0000 N   0  0  0  0  0  0  0  0  0  0  0  0
  -10.3039   -4.6029    0.0000 C   0  0  0  0  0  0  0  0  0  0  0  0
  -11.4186   -5.6066    0.0000 C   0  0  0  0  0  0  0  0  0  0  0  0
  -12.7176   -4.8566    0.0000 C   0  0  0  0  0  0  0  0  0  0  0  0
  -12.4057   -3.3894    0.0000 C   0  0  0  0  0  0  0  0  0  0  0  0
  -13.4094   -2.2747    0.0000 O   0  0  0  0  0  0  0  0  0  0  0  0
   -4.1640    0.6645    0.0000 N   0  0  0  0  0  0  0  0  0  0  0  0
  1  2  2  0
  2  3  1  0
  3  4  1  0
  4  5  2  0
  5  6  1  0
  6  7  2  0
  7  8  1  0
  8  9  2  0
  2 10  1  0
 10 11  1  0
 11 12  2  0
 12 13  1  0
 13 14  2  0
 14 15  1  0
 15 16  2  0
 15 17  1  0
 17 18  1  0
 18 19  2  0
 19 20  1  0
 20 21  1  0
 21 22  2  0
 22 23  1  0
 23 24  1  0
 24 25  1  0
 25 26  2  0
 26 27  1  0
 27 28  2  0
 28 29  1  0
 29 30  1  0
 30 31  1  0
 31 32  2  0
 32 33  1  0
 33 34  2  0
 34 35  1  0
 35 36  2  0
 35 37  1  0
 37 38  1  0
 38 39  1  0
 39 40  1  0
 40 41  1  0
 41 42  2  0
 29 43  2  0
  9  4  1  0
 16 11  1  0
 24 17  2  0
 23 19  1  0
 43 25  1  0
 36 31  1  0
 41 37  1  0
M  END
>  <Molecule>  (326) 
CHEMBL1991429

>  <Standard Type>  (326) 
Ki

>  <Standard Relation>  (326) 
=

>  <Standard Value>  (326) 
1000.0

>  <Standard Units>  (326) 
nM

>  <pChEMBL Value>  (326) 
6.0

>  <Comment>  (326) 
active

>  <Compound Key>  (326) 
SID103904411

>  <Assay>  (326) 
CHEMBL1963742

>  <Assay Description>  (326) 
PUBCHEM_BIOASSAY: Navigating the Kinome. (Class of assay: other) Panel member name: JAK3

>  <BAO Format>  (326) 
assay format

>  <Target>  (326) 
CHEMBL2148

>  <Target Pref. Name>  (326) 
Tyrosine-protein kinase JAK3

>  <Target Organism>  (326) 
Homo sapiens

>  <Target Type>  (326) 
SINGLE PROTEIN

>  <Document>  (326) 
CHEMBL1201862

>  <Source>  (326) 
PubChem BioAssays

>  <Max Phase>  (326) 
0

>  <#Ro5 Violations>  (326) 
2

>  <Molecular Weight>  (326) 
585.69

>  <Ligand Efficiency BEI>  (326) 
nan

>  <Ligand Efficiency LE>  (326) 
nan

>  <Ligand Efficiency LLE>  (326) 
nan

>  <Ligand Efficiency SEI>  (326) 
nan

>  <ALogP>  (326) 
6.57

>  <Assay Organism>  (326) 
nan

>  <Assay Tissue ChEMBL ID>  (326) 
nan

>  <Assay Tissue Name>  (326) 
nan

>  <Assay Cell Type>  (326) 
nan

>  <Assay Subcellular Fraction>  (326) 
nan

>  <Organism Tax ID>  (326) 
9606

>  <BAO Format ID>  (326) 
BAO_0000019

>  <Published Type>  (326) 
nan

>  <Published Relation>  (326) 
nan

>  <Published Value>  (326) 
nan

>  <Published Units>  (326) 
nan

>  <Canonical Smiles>  (326) 
O=C(Cc1ccccc1)Nc2cccc(c2)c3nc4sccn4c3c5ccnc(Nc6cccc(c6)N7CCCC7=O)n5

>  <Data Validity Comment>  (326) 
nan

>  <Document Journal>  (326) 
nan

>  <Document Year>  (326) 
nan

>  <SRC ID>  (326) 
7

>  <UO Units>  (326) 
UO_0000065

>  <Potential Duplicate>  (326) 
False

>  <Class>  (326) 
1

$$$$

     RDKit          2D

 18 20  0  0  0  0  0  0  0  0999 V2000
    3.0000    0.0000    0.0000 Br  0  0  0  0  0  0  0  0  0  0  0  0
    1.5000    0.0000    0.0000 C   0  0  0  0  0  0  0  0  0  0  0  0
    0.7500   -1.2990    0.0000 C   0  0  0  0  0  0  0  0  0  0  0  0
   -0.7500   -1.2990    0.0000 C   0  0  0  0  0  0  0  0  0  0  0  0
   -1.5000    0.0000    0.0000 C   0  0  0  0  0  0  0  0  0  0  0  0
   -3.0000    0.0000    0.0000 C   0  0  0  0  0  0  0  0  0  0  0  0
   -3.7500    1.2990    0.0000 N   0  0  0  0  0  0  0  0  0  0  0  0
   -3.0000    2.5981    0.0000 C   0  0  0  0  0  0  0  0  0  0  0  0
   -3.7500    3.8971    0.0000 N   0  0  0  0  0  0  0  0  0  0  0  0
   -3.0000    5.1962    0.0000 C   0  0  0  0  0  0  0  0  0  0  0  0
   -1.5000    5.1962    0.0000 C   0  0  0  0  0  0  0  0  0  0  0  0
   -0.7500    6.4952    0.0000 C   0  0  0  0  0  0  0  0  0  0  0  0
   -1.5000    7.7942    0.0000 N   0  0  0  0  0  0  0  0  0  0  0  0
   -3.0000    7.7942    0.0000 C   0  0  0  0  0  0  0  0  0  0  0  0
   -3.7500    6.4952    0.0000 N   0  0  0  0  0  0  0  0  0  0  0  0
   -1.5000    2.5981    0.0000 C   0  0  0  0  0  0  0  0  0  0  0  0
   -0.7500    1.2990    0.0000 C   0  0  0  0  0  0  0  0  0  0  0  0
    0.7500    1.2990    0.0000 C   0  0  0  0  0  0  0  0  0  0  0  0
  1  2  1  0
  2  3  2  0
  3  4  1  0
  4  5  2  0
  5  6  1  0
  6  7  2  0
  7  8  1  0
  8  9  1  0
  9 10  1  0
 10 11  2  0
 11 12  1  0
 12 13  2  0
 13 14  1  0
 14 15  2  0
  8 16  2  0
 16 17  1  0
 17 18  2  0
 18  2  1  0
 17  5  1  0
 15 10  1  0
M  END
>  <Molecule>  (327) 
CHEMBL1984686

>  <Standard Type>  (327) 
Ki

>  <Standard Relation>  (327) 
>

>  <Standard Value>  (327) 
5011.87

>  <Standard Units>  (327) 
nM

>  <pChEMBL Value>  (327) 
nan

>  <Comment>  (327) 
inactive

>  <Compound Key>  (327) 
SID103905685

>  <Assay>  (327) 
CHEMBL1963742

>  <Assay Description>  (327) 
PUBCHEM_BIOASSAY: Navigating the Kinome. (Class of assay: other) Panel member name: JAK3

>  <BAO Format>  (327) 
assay format

>  <Target>  (327) 
CHEMBL2148

>  <Target Pref. Name>  (327) 
Tyrosine-protein kinase JAK3

>  <Target Organism>  (327) 
Homo sapiens

>  <Target Type>  (327) 
SINGLE PROTEIN

>  <Document>  (327) 
CHEMBL1201862

>  <Source>  (327) 
PubChem BioAssays

>  <Max Phase>  (327) 
0

>  <#Ro5 Violations>  (327) 
0

>  <Molecular Weight>  (327) 
301.15

>  <Ligand Efficiency BEI>  (327) 
nan

>  <Ligand Efficiency LE>  (327) 
nan

>  <Ligand Efficiency LLE>  (327) 
nan

>  <Ligand Efficiency SEI>  (327) 
nan

>  <ALogP>  (327) 
3.53

>  <Assay Organism>  (327) 
nan

>  <Assay Tissue ChEMBL ID>  (327) 
nan

>  <Assay Tissue Name>  (327) 
nan

>  <Assay Cell Type>  (327) 
nan

>  <Assay Subcellular Fraction>  (327) 
nan

>  <Organism Tax ID>  (327) 
9606

>  <BAO Format ID>  (327) 
BAO_0000019

>  <Published Type>  (327) 
nan

>  <Published Relation>  (327) 
nan

>  <Published Value>  (327) 
nan

>  <Published Units>  (327) 
nan

>  <Canonical Smiles>  (327) 
Brc1ccc2cnc(Nc3ccncn3)cc2c1

>  <Data Validity Comment>  (327) 
nan

>  <Document Journal>  (327) 
nan

>  <Document Year>  (327) 
nan

>  <SRC ID>  (327) 
7

>  <UO Units>  (327) 
UO_0000065

>  <Potential Duplicate>  (327) 
False

>  <Class>  (327) 
0

$$$$

     RDKit          2D

 33 37  0  0  0  0  0  0  0  0999 V2000
   14.7401    2.1079    0.0000 C   0  0  0  0  0  0  0  0  0  0  0  0
   13.3698    2.7180    0.0000 N   0  0  0  0  0  0  0  0  0  0  0  0
   12.1563    1.8363    0.0000 C   0  0  0  0  0  0  0  0  0  0  0  0
   10.7859    2.4464    0.0000 C   0  0  0  0  0  0  0  0  0  0  0  0
   10.6291    3.9382    0.0000 N   0  0  0  0  0  0  0  0  0  0  0  0
   11.8427    4.8199    0.0000 C   0  0  0  0  0  0  0  0  0  0  0  0
   13.2130    4.2098    0.0000 C   0  0  0  0  0  0  0  0  0  0  0  0
    9.2588    4.5483    0.0000 C   0  0  0  0  0  0  0  0  0  0  0  0
    9.1020    6.0401    0.0000 C   0  0  0  0  0  0  0  0  0  0  0  0
    7.7317    6.6502    0.0000 C   0  0  0  0  0  0  0  0  0  0  0  0
    6.5182    5.7685    0.0000 C   0  0  0  0  0  0  0  0  0  0  0  0
    5.1479    6.3786    0.0000 N   0  0  0  0  0  0  0  0  0  0  0  0
    3.9343    5.4969    0.0000 C   0  0  0  0  0  0  0  0  0  0  0  0
    2.5640    6.1070    0.0000 N   0  0  0  0  0  0  0  0  0  0  0  0
    1.3505    5.2253    0.0000 C   0  0  0  0  0  0  0  0  0  0  0  0
    1.5073    3.7336    0.0000 C   0  0  0  0  0  0  0  0  0  0  0  0
    0.2938    2.8519    0.0000 F   0  0  0  0  0  0  0  0  0  0  0  0
    2.8776    3.1235    0.0000 C   0  0  0  0  0  0  0  0  0  0  0  0
    3.0344    1.6317    0.0000 N   0  0  0  0  0  0  0  0  0  0  0  0
    1.8209    0.7500    0.0000 C   0  0  0  0  0  0  0  0  0  0  0  0
    0.3943    1.2135    0.0000 C   0  0  0  0  0  0  0  0  0  0  0  0
    1.2760    0.0000    0.0000 C   0  0  0  0  0  0  0  0  0  0  0  0
    0.3943   -1.2135    0.0000 C   0  0  0  0  0  0  0  0  0  0  0  0
   -1.0323   -0.7500    0.0000 C   0  0  0  0  0  0  0  0  0  0  0  0
   -1.0323    0.7500    0.0000 C   0  0  0  0  0  0  0  0  0  0  0  0
    1.8209   -0.7500    0.0000 C   0  0  0  0  0  0  0  0  0  0  0  0
    3.0344   -1.6317    0.0000 C   0  0  0  0  0  0  0  0  0  0  0  0
    4.4047   -1.0216    0.0000 O   0  0  0  0  0  0  0  0  0  0  0  0
    2.8776   -3.1235    0.0000 N   0  0  0  0  0  0  0  0  0  0  0  0
    4.0911    4.0051    0.0000 N   0  0  0  0  0  0  0  0  0  0  0  0
    6.6750    4.2767    0.0000 C   0  0  0  0  0  0  0  0  0  0  0  0
    8.0453    3.6666    0.0000 C   0  0  0  0  0  0  0  0  0  0  0  0
    8.2021    2.1748    0.0000 C   0  0  0  0  0  0  0  0  0  0  0  0
  1  2  1  0
  2  3  1  0
  3  4  1  0
  4  5  1  0
  5  6  1  0
  6  7  1  0
  5  8  1  0
  8  9  2  0
  9 10  1  0
 10 11  2  0
 11 12  1  0
 12 13  1  0
 13 14  2  0
 14 15  1  0
 15 16  2  0
 16 17  1  0
 16 18  1  0
 18 19  1  0
 19 20  1  0
 20 21  1  0
 21 22  1  0
 22 23  1  0
 23 24  1  0
 24 25  2  0
 23 26  1  0
 26 27  1  0
 27 28  2  0
 27 29  1  0
 18 30  2  0
 11 31  1  0
 31 32  2  0
 32 33  1  0
  7  2  1  0
 32  8  1  0
 30 13  1  0
 26 20  1  0
 25 21  1  0
M  END
>  <Molecule>  (328) 
CHEMBL1967878

>  <Standard Type>  (328) 
Ki

>  <Standard Relation>  (328) 
=

>  <Standard Value>  (328) 
50.12

>  <Standard Units>  (328) 
nM

>  <pChEMBL Value>  (328) 
7.3

>  <Comment>  (328) 
active

>  <Compound Key>  (328) 
SID103904402

>  <Assay>  (328) 
CHEMBL1963742

>  <Assay Description>  (328) 
PUBCHEM_BIOASSAY: Navigating the Kinome. (Class of assay: other) Panel member name: JAK3

>  <BAO Format>  (328) 
assay format

>  <Target>  (328) 
CHEMBL2148

>  <Target Pref. Name>  (328) 
Tyrosine-protein kinase JAK3

>  <Target Organism>  (328) 
Homo sapiens

>  <Target Type>  (328) 
SINGLE PROTEIN

>  <Document>  (328) 
CHEMBL1201862

>  <Source>  (328) 
PubChem BioAssays

>  <Max Phase>  (328) 
1

>  <#Ro5 Violations>  (328) 
0

>  <Molecular Weight>  (328) 
451.55

>  <Ligand Efficiency BEI>  (328) 
nan

>  <Ligand Efficiency LE>  (328) 
nan

>  <Ligand Efficiency LLE>  (328) 
nan

>  <Ligand Efficiency SEI>  (328) 
nan

>  <ALogP>  (328) 
2.51

>  <Assay Organism>  (328) 
nan

>  <Assay Tissue ChEMBL ID>  (328) 
nan

>  <Assay Tissue Name>  (328) 
nan

>  <Assay Cell Type>  (328) 
nan

>  <Assay Subcellular Fraction>  (328) 
nan

>  <Organism Tax ID>  (328) 
9606

>  <BAO Format ID>  (328) 
BAO_0000019

>  <Published Type>  (328) 
nan

>  <Published Relation>  (328) 
nan

>  <Published Value>  (328) 
nan

>  <Published Units>  (328) 
nan

>  <Canonical Smiles>  (328) 
CN1CCN(CC1)c2ccc(Nc3ncc(F)c(NC4C5CC(C=C5)C4C(=O)N)n3)cc2C

>  <Data Validity Comment>  (328) 
nan

>  <Document Journal>  (328) 
nan

>  <Document Year>  (328) 
nan

>  <SRC ID>  (328) 
7

>  <UO Units>  (328) 
UO_0000065

>  <Potential Duplicate>  (328) 
False

>  <Class>  (328) 
1

$$$$

     RDKit          2D

 21 24  0  0  0  0  0  0  0  0999 V2000
   -2.5099    6.0921    0.0000 O   0  0  0  0  0  0  0  0  0  0  0  0
   -3.8090    6.8421    0.0000 C   0  0  0  0  0  0  0  0  0  0  0  0
   -3.9658    8.3339    0.0000 C   0  0  0  0  0  0  0  0  0  0  0  0
   -5.4330    8.6458    0.0000 C   0  0  0  0  0  0  0  0  0  0  0  0
   -6.1830    7.3467    0.0000 C   0  0  0  0  0  0  0  0  0  0  0  0
   -5.1793    6.2320    0.0000 N   0  0  0  0  0  0  0  0  0  0  0  0
   -5.4912    4.7648    0.0000 C   0  0  0  0  0  0  0  0  0  0  0  0
   -4.3764    3.7611    0.0000 C   0  0  0  0  0  0  0  0  0  0  0  0
   -4.6883    2.2939    0.0000 C   0  0  0  0  0  0  0  0  0  0  0  0
   -3.5736    1.2902    0.0000 C   0  0  0  0  0  0  0  0  0  0  0  0
   -2.1470    1.7537    0.0000 C   0  0  0  0  0  0  0  0  0  0  0  0
   -1.8351    3.2209    0.0000 C   0  0  0  0  0  0  0  0  0  0  0  0
   -0.4086    3.6844    0.0000 N   0  0  0  0  0  0  0  0  0  0  0  0
    0.7062    2.6807    0.0000 C   0  0  0  0  0  0  0  0  0  0  0  0
    2.1328    3.1443    0.0000 O   0  0  0  0  0  0  0  0  0  0  0  0
    0.3943    1.2135    0.0000 C   0  0  0  0  0  0  0  0  0  0  0  0
    1.2760    0.0000    0.0000 C   0  0  0  0  0  0  0  0  0  0  0  0
    0.3943   -1.2135    0.0000 C   0  0  0  0  0  0  0  0  0  0  0  0
   -1.0323   -0.7500    0.0000 C   0  0  0  0  0  0  0  0  0  0  0  0
   -1.0323    0.7500    0.0000 N   0  0  0  0  0  0  0  0  0  0  0  0
   -2.9499    4.2246    0.0000 C   0  0  0  0  0  0  0  0  0  0  0  0
  1  2  2  0
  2  3  1  0
  3  4  1  0
  4  5  1  0
  5  6  1  0
  6  7  1  0
  7  8  1  0
  8  9  2  0
  9 10  1  0
 10 11  2  0
 11 12  1  0
 12 13  1  0
 13 14  1  0
 14 15  2  0
 14 16  1  0
 16 17  2  0
 17 18  1  0
 18 19  2  0
 19 20  1  0
 12 21  2  0
  6  2  1  0
 21  8  1  0
 20 11  1  0
 20 16  1  0
M  END
>  <Molecule>  (329) 
CHEMBL539474

>  <Standard Type>  (329) 
Ki

>  <Standard Relation>  (329) 
>

>  <Standard Value>  (329) 
1584.89

>  <Standard Units>  (329) 
nM

>  <pChEMBL Value>  (329) 
nan

>  <Comment>  (329) 
inactive

>  <Compound Key>  (329) 
SID103904913

>  <Assay>  (329) 
CHEMBL1963742

>  <Assay Description>  (329) 
PUBCHEM_BIOASSAY: Navigating the Kinome. (Class of assay: other) Panel member name: JAK3

>  <BAO Format>  (329) 
assay format

>  <Target>  (329) 
CHEMBL2148

>  <Target Pref. Name>  (329) 
Tyrosine-protein kinase JAK3

>  <Target Organism>  (329) 
Homo sapiens

>  <Target Type>  (329) 
SINGLE PROTEIN

>  <Document>  (329) 
CHEMBL1201862

>  <Source>  (329) 
PubChem BioAssays

>  <Max Phase>  (329) 
0

>  <#Ro5 Violations>  (329) 
0

>  <Molecular Weight>  (329) 
281.31

>  <Ligand Efficiency BEI>  (329) 
nan

>  <Ligand Efficiency LE>  (329) 
nan

>  <Ligand Efficiency LLE>  (329) 
nan

>  <Ligand Efficiency SEI>  (329) 
nan

>  <ALogP>  (329) 
1.9

>  <Assay Organism>  (329) 
nan

>  <Assay Tissue ChEMBL ID>  (329) 
nan

>  <Assay Tissue Name>  (329) 
nan

>  <Assay Cell Type>  (329) 
nan

>  <Assay Subcellular Fraction>  (329) 
nan

>  <Organism Tax ID>  (329) 
9606

>  <BAO Format ID>  (329) 
BAO_0000019

>  <Published Type>  (329) 
nan

>  <Published Relation>  (329) 
nan

>  <Published Value>  (329) 
nan

>  <Published Units>  (329) 
nan

>  <Canonical Smiles>  (329) 
O=C1CCCN1Cc2ccc3c(NC(=O)c4cccn34)c2

>  <Data Validity Comment>  (329) 
nan

>  <Document Journal>  (329) 
nan

>  <Document Year>  (329) 
nan

>  <SRC ID>  (329) 
7

>  <UO Units>  (329) 
UO_0000065

>  <Potential Duplicate>  (329) 
False

>  <Class>  (329) 
0

$$$$

     RDKit          2D

 17 19  0  0  0  0  0  0  0  0999 V2000
    3.0000    0.0000    0.0000 O   0  0  0  0  0  0  0  0  0  0  0  0
    1.5000    0.0000    0.0000 C   0  0  0  0  0  0  0  0  0  0  0  0
    0.7500   -1.2990    0.0000 C   0  0  0  0  0  0  0  0  0  0  0  0
   -0.7500   -1.2990    0.0000 N   0  0  0  0  0  0  0  0  0  0  0  0
   -1.5000    0.0000    0.0000 C   0  0  0  0  0  0  0  0  0  0  0  0
   -3.0000    0.0000    0.0000 C   0  0  0  0  0  0  0  0  0  0  0  0
   -3.7500    1.2990    0.0000 C   0  0  0  0  0  0  0  0  0  0  0  0
   -3.0000    2.5981    0.0000 C   0  0  0  0  0  0  0  0  0  0  0  0
   -1.5000    2.5981    0.0000 C   0  0  0  0  0  0  0  0  0  0  0  0
   -0.7500    1.2990    0.0000 C   0  0  0  0  0  0  0  0  0  0  0  0
    0.7500    1.2990    0.0000 C   0  0  0  0  0  0  0  0  0  0  0  0
   -3.7500    3.8971    0.0000 C   0  0  0  0  0  0  0  0  0  0  0  0
   -3.0000    5.1962    0.0000 C   0  0  0  0  0  0  0  0  0  0  0  0
   -3.7500    6.4952    0.0000 C   0  0  0  0  0  0  0  0  0  0  0  0
   -5.2500    6.4952    0.0000 N   0  0  0  0  0  0  0  0  0  0  0  0
   -6.0000    5.1962    0.0000 C   0  0  0  0  0  0  0  0  0  0  0  0
   -5.2500    3.8971    0.0000 C   0  0  0  0  0  0  0  0  0  0  0  0
  1  2  1  0
  2  3  2  0
  3  4  1  0
  4  5  2  0
  5  6  1  0
  6  7  2  0
  7  8  1  0
  8  9  2  0
  9 10  1  0
 10 11  2  0
  8 12  1  0
 12 13  2  0
 13 14  1  0
 14 15  2  0
 15 16  1  0
 16 17  2  0
 11  2  1  0
 10  5  1  0
 17 12  1  0
M  END
>  <Molecule>  (330) 
CHEMBL1973868

>  <Standard Type>  (330) 
Ki

>  <Standard Relation>  (330) 
>

>  <Standard Value>  (330) 
5011.87

>  <Standard Units>  (330) 
nM

>  <pChEMBL Value>  (330) 
nan

>  <Comment>  (330) 
inactive

>  <Compound Key>  (330) 
SID103905613

>  <Assay>  (330) 
CHEMBL1963742

>  <Assay Description>  (330) 
PUBCHEM_BIOASSAY: Navigating the Kinome. (Class of assay: other) Panel member name: JAK3

>  <BAO Format>  (330) 
assay format

>  <Target>  (330) 
CHEMBL2148

>  <Target Pref. Name>  (330) 
Tyrosine-protein kinase JAK3

>  <Target Organism>  (330) 
Homo sapiens

>  <Target Type>  (330) 
SINGLE PROTEIN

>  <Document>  (330) 
CHEMBL1201862

>  <Source>  (330) 
PubChem BioAssays

>  <Max Phase>  (330) 
0

>  <#Ro5 Violations>  (330) 
0

>  <Molecular Weight>  (330) 
222.25

>  <Ligand Efficiency BEI>  (330) 
nan

>  <Ligand Efficiency LE>  (330) 
nan

>  <Ligand Efficiency LLE>  (330) 
nan

>  <Ligand Efficiency SEI>  (330) 
nan

>  <ALogP>  (330) 
3.0

>  <Assay Organism>  (330) 
nan

>  <Assay Tissue ChEMBL ID>  (330) 
nan

>  <Assay Tissue Name>  (330) 
nan

>  <Assay Cell Type>  (330) 
nan

>  <Assay Subcellular Fraction>  (330) 
nan

>  <Organism Tax ID>  (330) 
9606

>  <BAO Format ID>  (330) 
BAO_0000019

>  <Published Type>  (330) 
nan

>  <Published Relation>  (330) 
nan

>  <Published Value>  (330) 
nan

>  <Published Units>  (330) 
nan

>  <Canonical Smiles>  (330) 
Oc1cnc2ccc(cc2c1)c3ccncc3

>  <Data Validity Comment>  (330) 
nan

>  <Document Journal>  (330) 
nan

>  <Document Year>  (330) 
nan

>  <SRC ID>  (330) 
7

>  <UO Units>  (330) 
UO_0000065

>  <Potential Duplicate>  (330) 
False

>  <Class>  (330) 
0

$$$$

     RDKit          2D

 20 22  0  0  0  0  0  0  0  0999 V2000
    3.0000    0.0000    0.0000 O   0  0  0  0  0  0  0  0  0  0  0  0
    1.5000    0.0000    0.0000 C   0  0  0  0  0  0  0  0  0  0  0  0
    0.7500   -1.2990    0.0000 N   0  0  0  0  0  0  0  0  0  0  0  0
   -0.7500   -1.2990    0.0000 C   0  0  0  0  0  0  0  0  0  0  0  0
   -1.5000    0.0000    0.0000 N   0  0  0  0  0  0  0  0  0  0  0  0
   -0.7500    1.2990    0.0000 C   0  0  0  0  0  0  0  0  0  0  0  0
    0.7500    1.2990    0.0000 C   0  0  0  0  0  0  0  0  0  0  0  0
   -1.5000    2.5981    0.0000 C   0  0  0  0  0  0  0  0  0  0  0  0
   -0.7500    3.8971    0.0000 C   0  0  0  0  0  0  0  0  0  0  0  0
   -1.5000    5.1962    0.0000 C   0  0  0  0  0  0  0  0  0  0  0  0
   -3.0000    5.1962    0.0000 N   0  0  0  0  0  0  0  0  0  0  0  0
   -3.7500    3.8971    0.0000 C   0  0  0  0  0  0  0  0  0  0  0  0
   -3.0000    2.5981    0.0000 C   0  0  0  0  0  0  0  0  0  0  0  0
   -1.5000   -2.5981    0.0000 N   0  0  0  0  0  0  0  0  0  0  0  0
   -3.0000   -2.5981    0.0000 C   0  0  0  0  0  0  0  0  0  0  0  0
   -3.7500   -1.2990    0.0000 C   0  0  0  0  0  0  0  0  0  0  0  0
   -5.2500   -1.2990    0.0000 C   0  0  0  0  0  0  0  0  0  0  0  0
   -6.0000   -2.5981    0.0000 C   0  0  0  0  0  0  0  0  0  0  0  0
   -5.2500   -3.8971    0.0000 C   0  0  0  0  0  0  0  0  0  0  0  0
   -3.7500   -3.8971    0.0000 C   0  0  0  0  0  0  0  0  0  0  0  0
  1  2  2  0
  2  3  1  0
  3  4  1  0
  4  5  2  0
  5  6  1  0
  6  7  2  0
  6  8  1  0
  8  9  2  0
  9 10  1  0
 10 11  2  0
 11 12  1  0
 12 13  2  0
  4 14  1  0
 14 15  1  0
 15 16  1  0
 16 17  1  0
 17 18  1  0
 18 19  1  0
 19 20  1  0
  7  2  1  0
 13  8  1  0
 20 15  1  0
M  END
>  <Molecule>  (331) 
CHEMBL1958401

>  <Standard Type>  (331) 
Ki

>  <Standard Relation>  (331) 
>

>  <Standard Value>  (331) 
1584.89

>  <Standard Units>  (331) 
nM

>  <pChEMBL Value>  (331) 
nan

>  <Comment>  (331) 
inactive

>  <Compound Key>  (331) 
SID103904798

>  <Assay>  (331) 
CHEMBL1963742

>  <Assay Description>  (331) 
PUBCHEM_BIOASSAY: Navigating the Kinome. (Class of assay: other) Panel member name: JAK3

>  <BAO Format>  (331) 
assay format

>  <Target>  (331) 
CHEMBL2148

>  <Target Pref. Name>  (331) 
Tyrosine-protein kinase JAK3

>  <Target Organism>  (331) 
Homo sapiens

>  <Target Type>  (331) 
SINGLE PROTEIN

>  <Document>  (331) 
CHEMBL1201862

>  <Source>  (331) 
PubChem BioAssays

>  <Max Phase>  (331) 
0

>  <#Ro5 Violations>  (331) 
0

>  <Molecular Weight>  (331) 
270.34

>  <Ligand Efficiency BEI>  (331) 
nan

>  <Ligand Efficiency LE>  (331) 
nan

>  <Ligand Efficiency LLE>  (331) 
nan

>  <Ligand Efficiency SEI>  (331) 
nan

>  <ALogP>  (331) 
2.58

>  <Assay Organism>  (331) 
nan

>  <Assay Tissue ChEMBL ID>  (331) 
nan

>  <Assay Tissue Name>  (331) 
nan

>  <Assay Cell Type>  (331) 
nan

>  <Assay Subcellular Fraction>  (331) 
nan

>  <Organism Tax ID>  (331) 
9606

>  <BAO Format ID>  (331) 
BAO_0000019

>  <Published Type>  (331) 
nan

>  <Published Relation>  (331) 
nan

>  <Published Value>  (331) 
nan

>  <Published Units>  (331) 
nan

>  <Canonical Smiles>  (331) 
O=C1NC(=NC(=C1)c2ccncc2)NC3CCCCC3

>  <Data Validity Comment>  (331) 
nan

>  <Document Journal>  (331) 
nan

>  <Document Year>  (331) 
nan

>  <SRC ID>  (331) 
7

>  <UO Units>  (331) 
UO_0000065

>  <Potential Duplicate>  (331) 
False

>  <Class>  (331) 
0

$$$$

     RDKit          2D

 16 18  0  0  0  0  0  0  0  0999 V2000
   -0.0000   -5.1073    0.0000 O   0  0  0  0  0  0  0  0  0  0  0  0
   -0.0000   -3.6073    0.0000 C   0  0  0  0  0  0  0  0  0  0  0  0
    1.2135   -2.7256    0.0000 N   0  0  0  0  0  0  0  0  0  0  0  0
    0.7500   -1.2990    0.0000 C   0  0  0  0  0  0  0  0  0  0  0  0
    1.5000    0.0000    0.0000 C   0  0  0  0  0  0  0  0  0  0  0  0
    0.7500    1.2990    0.0000 C   0  0  0  0  0  0  0  0  0  0  0  0
   -0.7500    1.2990    0.0000 C   0  0  0  0  0  0  0  0  0  0  0  0
   -1.5000    0.0000    0.0000 N   0  0  0  0  0  0  0  0  0  0  0  0
   -0.7500   -1.2990    0.0000 C   0  0  0  0  0  0  0  0  0  0  0  0
   -1.2135   -2.7256    0.0000 N   0  0  0  0  0  0  0  0  0  0  0  0
    1.5000    2.5981    0.0000 C   0  0  0  0  0  0  0  0  0  0  0  0
    3.0000    2.5981    0.0000 C   0  0  0  0  0  0  0  0  0  0  0  0
    3.7500    3.8971    0.0000 C   0  0  0  0  0  0  0  0  0  0  0  0
    3.0000    5.1962    0.0000 C   0  0  0  0  0  0  0  0  0  0  0  0
    1.5000    5.1962    0.0000 C   0  0  0  0  0  0  0  0  0  0  0  0
    0.7500    3.8971    0.0000 C   0  0  0  0  0  0  0  0  0  0  0  0
  1  2  2  0
  2  3  1  0
  3  4  1  0
  4  5  2  0
  5  6  1  0
  6  7  2  0
  7  8  1  0
  8  9  2  0
  9 10  1  0
  6 11  1  0
 11 12  2  0
 12 13  1  0
 13 14  2  0
 14 15  1  0
 15 16  2  0
 10  2  1  0
  9  4  1  0
 16 11  1  0
M  END
>  <Molecule>  (332) 
CHEMBL2003456

>  <Standard Type>  (332) 
Ki

>  <Standard Relation>  (332) 
>

>  <Standard Value>  (332) 
1584.89

>  <Standard Units>  (332) 
nM

>  <pChEMBL Value>  (332) 
nan

>  <Comment>  (332) 
inactive

>  <Compound Key>  (332) 
SID103904364

>  <Assay>  (332) 
CHEMBL1963742

>  <Assay Description>  (332) 
PUBCHEM_BIOASSAY: Navigating the Kinome. (Class of assay: other) Panel member name: JAK3

>  <BAO Format>  (332) 
assay format

>  <Target>  (332) 
CHEMBL2148

>  <Target Pref. Name>  (332) 
Tyrosine-protein kinase JAK3

>  <Target Organism>  (332) 
Homo sapiens

>  <Target Type>  (332) 
SINGLE PROTEIN

>  <Document>  (332) 
CHEMBL1201862

>  <Source>  (332) 
PubChem BioAssays

>  <Max Phase>  (332) 
0

>  <#Ro5 Violations>  (332) 
0

>  <Molecular Weight>  (332) 
211.22

>  <Ligand Efficiency BEI>  (332) 
nan

>  <Ligand Efficiency LE>  (332) 
nan

>  <Ligand Efficiency LLE>  (332) 
nan

>  <Ligand Efficiency SEI>  (332) 
nan

>  <ALogP>  (332) 
1.92

>  <Assay Organism>  (332) 
nan

>  <Assay Tissue ChEMBL ID>  (332) 
nan

>  <Assay Tissue Name>  (332) 
nan

>  <Assay Cell Type>  (332) 
nan

>  <Assay Subcellular Fraction>  (332) 
nan

>  <Organism Tax ID>  (332) 
9606

>  <BAO Format ID>  (332) 
BAO_0000019

>  <Published Type>  (332) 
nan

>  <Published Relation>  (332) 
nan

>  <Published Value>  (332) 
nan

>  <Published Units>  (332) 
nan

>  <Canonical Smiles>  (332) 
O=C1Nc2cc(cnc2N1)c3ccccc3

>  <Data Validity Comment>  (332) 
nan

>  <Document Journal>  (332) 
nan

>  <Document Year>  (332) 
nan

>  <SRC ID>  (332) 
7

>  <UO Units>  (332) 
UO_0000065

>  <Potential Duplicate>  (332) 
False

>  <Class>  (332) 
0

$$$$

     RDKit          2D

 25 27  0  0  0  0  0  0  0  0999 V2000
    3.7500   -1.2990    0.0000 O   0  0  0  0  0  0  0  0  0  0  0  0
    3.0000    0.0000    0.0000 C   0  0  0  0  0  0  0  0  0  0  0  0
    3.7500    1.2990    0.0000 O   0  0  0  0  0  0  0  0  0  0  0  0
    1.5000    0.0000    0.0000 C   0  0  0  0  0  0  0  0  0  0  0  0
    0.7500   -1.2990    0.0000 C   0  0  0  0  0  0  0  0  0  0  0  0
   -0.7500   -1.2990    0.0000 C   0  0  0  0  0  0  0  0  0  0  0  0
   -1.5000    0.0000    0.0000 C   0  0  0  0  0  0  0  0  0  0  0  0
   -3.0000    0.0000    0.0000 C   0  0  0  0  0  0  0  0  0  0  0  0
   -3.7500    1.2990    0.0000 C   0  0  0  0  0  0  0  0  0  0  0  0
   -5.2500    1.2990    0.0000 N   0  0  0  0  0  0  0  0  0  0  0  0
   -6.0000    2.5981    0.0000 C   0  0  0  0  0  0  0  0  0  0  0  0
   -5.2500    3.8971    0.0000 O   0  0  0  0  0  0  0  0  0  0  0  0
   -7.5000    2.5981    0.0000 N   0  0  0  0  0  0  0  0  0  0  0  0
   -8.2500    3.8971    0.0000 C   0  0  0  0  0  0  0  0  0  0  0  0
   -7.5000    5.1962    0.0000 C   0  0  0  0  0  0  0  0  0  0  0  0
   -8.2500    6.4952    0.0000 N   0  0  0  0  0  0  0  0  0  0  0  0
   -9.7500    6.4952    0.0000 C   0  0  0  0  0  0  0  0  0  0  0  0
  -10.5000    5.1962    0.0000 C   0  0  0  0  0  0  0  0  0  0  0  0
   -9.7500    3.8971    0.0000 N   0  0  0  0  0  0  0  0  0  0  0  0
  -10.5000    7.7942    0.0000 C   0  0  0  0  0  0  0  0  0  0  0  0
  -11.2500    9.0933    0.0000 N   0  0  0  0  0  0  0  0  0  0  0  0
   -3.0000    2.5981    0.0000 C   0  0  0  0  0  0  0  0  0  0  0  0
   -1.5000    2.5981    0.0000 C   0  0  0  0  0  0  0  0  0  0  0  0
   -0.7500    1.2990    0.0000 C   0  0  0  0  0  0  0  0  0  0  0  0
    0.7500    1.2990    0.0000 C   0  0  0  0  0  0  0  0  0  0  0  0
  1  2  1  0
  2  3  2  0
  2  4  1  0
  4  5  2  0
  5  6  1  0
  6  7  2  0
  7  8  1  0
  8  9  2  0
  9 10  1  0
 10 11  1  0
 11 12  2  0
 11 13  1  0
 13 14  1  0
 14 15  2  0
 15 16  1  0
 16 17  2  0
 17 18  1  0
 18 19  2  0
 17 20  1  0
 20 21  3  0
  9 22  1  0
 22 23  2  0
 23 24  1  0
 24 25  2  0
 25  4  1  0
 24  7  1  0
 19 14  1  0
M  END
>  <Molecule>  (333) 
CHEMBL560813

>  <Standard Type>  (333) 
Ki

>  <Standard Relation>  (333) 
>

>  <Standard Value>  (333) 
1584.89

>  <Standard Units>  (333) 
nM

>  <pChEMBL Value>  (333) 
nan

>  <Comment>  (333) 
inactive

>  <Compound Key>  (333) 
SID103904886

>  <Assay>  (333) 
CHEMBL1963742

>  <Assay Description>  (333) 
PUBCHEM_BIOASSAY: Navigating the Kinome. (Class of assay: other) Panel member name: JAK3

>  <BAO Format>  (333) 
assay format

>  <Target>  (333) 
CHEMBL2148

>  <Target Pref. Name>  (333) 
Tyrosine-protein kinase JAK3

>  <Target Organism>  (333) 
Homo sapiens

>  <Target Type>  (333) 
SINGLE PROTEIN

>  <Document>  (333) 
CHEMBL1201862

>  <Source>  (333) 
PubChem BioAssays

>  <Max Phase>  (333) 
0

>  <#Ro5 Violations>  (333) 
0

>  <Molecular Weight>  (333) 
333.31

>  <Ligand Efficiency BEI>  (333) 
nan

>  <Ligand Efficiency LE>  (333) 
nan

>  <Ligand Efficiency LLE>  (333) 
nan

>  <Ligand Efficiency SEI>  (333) 
nan

>  <ALogP>  (333) 
2.84

>  <Assay Organism>  (333) 
nan

>  <Assay Tissue ChEMBL ID>  (333) 
nan

>  <Assay Tissue Name>  (333) 
nan

>  <Assay Cell Type>  (333) 
nan

>  <Assay Subcellular Fraction>  (333) 
nan

>  <Organism Tax ID>  (333) 
9606

>  <BAO Format ID>  (333) 
BAO_0000019

>  <Published Type>  (333) 
nan

>  <Published Relation>  (333) 
nan

>  <Published Value>  (333) 
nan

>  <Published Units>  (333) 
nan

>  <Canonical Smiles>  (333) 
OC(=O)c1ccc2cc(NC(=O)Nc3cnc(cn3)C#N)ccc2c1

>  <Data Validity Comment>  (333) 
nan

>  <Document Journal>  (333) 
nan

>  <Document Year>  (333) 
nan

>  <SRC ID>  (333) 
7

>  <UO Units>  (333) 
UO_0000065

>  <Potential Duplicate>  (333) 
False

>  <Class>  (333) 
0

$$$$

     RDKit          2D

 25 28  0  0  0  0  0  0  0  0999 V2000
   -3.0000   -2.5981    0.0000 O   0  0  0  0  0  0  0  0  0  0  0  0
   -1.5000   -2.5981    0.0000 C   0  0  0  0  0  0  0  0  0  0  0  0
   -0.7500   -3.8971    0.0000 C   0  0  0  0  0  0  0  0  0  0  0  0
   -1.5000   -5.1962    0.0000 C   0  0  0  0  0  0  0  0  0  0  0  0
   -3.0000   -5.1962    0.0000 O   0  0  0  0  0  0  0  0  0  0  0  0
   -0.7500   -6.4952    0.0000 C   0  0  0  0  0  0  0  0  0  0  0  0
    0.7500   -6.4952    0.0000 C   0  0  0  0  0  0  0  0  0  0  0  0
    1.5000   -5.1962    0.0000 C   0  0  0  0  0  0  0  0  0  0  0  0
    0.7500   -3.8971    0.0000 C   0  0  0  0  0  0  0  0  0  0  0  0
    1.5000   -2.5981    0.0000 N   0  0  0  0  0  0  0  0  0  0  0  0
    0.7500   -1.2990    0.0000 C   0  0  0  0  0  0  0  0  0  0  0  0
    1.5000    0.0000    0.0000 C   0  0  0  0  0  0  0  0  0  0  0  0
    0.7500    1.2990    0.0000 C   0  0  0  0  0  0  0  0  0  0  0  0
    1.5000    2.5981    0.0000 Cl  0  0  0  0  0  0  0  0  0  0  0  0
   -0.7500    1.2990    0.0000 C   0  0  0  0  0  0  0  0  0  0  0  0
   -1.5000    0.0000    0.0000 C   0  0  0  0  0  0  0  0  0  0  0  0
   -0.7500   -1.2990    0.0000 C   0  0  0  0  0  0  0  0  0  0  0  0
    1.5000   -7.7942    0.0000 C   0  0  0  0  0  0  0  0  0  0  0  0
    0.7500   -9.0933    0.0000 C   0  0  0  0  0  0  0  0  0  0  0  0
    1.5000  -10.3923    0.0000 C   0  0  0  0  0  0  0  0  0  0  0  0
    3.0000  -10.3923    0.0000 C   0  0  0  0  0  0  0  0  0  0  0  0
    3.7500  -11.6913    0.0000 Cl  0  0  0  0  0  0  0  0  0  0  0  0
    3.7500   -9.0933    0.0000 C   0  0  0  0  0  0  0  0  0  0  0  0
    3.0000   -7.7942    0.0000 C   0  0  0  0  0  0  0  0  0  0  0  0
    3.7500   -6.4952    0.0000 Cl  0  0  0  0  0  0  0  0  0  0  0  0
  1  2  1  0
  2  3  2  0
  3  4  1  0
  4  5  2  0
  4  6  1  0
  6  7  1  0
  7  8  1  0
  8  9  1  0
  9 10  2  0
 10 11  1  0
 11 12  2  0
 12 13  1  0
 13 14  1  0
 13 15  2  0
 15 16  1  0
 16 17  2  0
  7 18  1  0
 18 19  2  0
 19 20  1  0
 20 21  2  0
 21 22  1  0
 21 23  1  0
 23 24  2  0
 24 25  1  0
 17  2  1  0
  9  3  1  0
 17 11  1  0
 24 18  1  0
M  END
>  <Molecule>  (334) 
CHEMBL326282

>  <Standard Type>  (334) 
Ki

>  <Standard Relation>  (334) 
>

>  <Standard Value>  (334) 
1584.89

>  <Standard Units>  (334) 
nM

>  <pChEMBL Value>  (334) 
nan

>  <Comment>  (334) 
inactive

>  <Compound Key>  (334) 
SID103905352

>  <Assay>  (334) 
CHEMBL1963742

>  <Assay Description>  (334) 
PUBCHEM_BIOASSAY: Navigating the Kinome. (Class of assay: other) Panel member name: JAK3

>  <BAO Format>  (334) 
assay format

>  <Target>  (334) 
CHEMBL2148

>  <Target Pref. Name>  (334) 
Tyrosine-protein kinase JAK3

>  <Target Organism>  (334) 
Homo sapiens

>  <Target Type>  (334) 
SINGLE PROTEIN

>  <Document>  (334) 
CHEMBL1201862

>  <Source>  (334) 
PubChem BioAssays

>  <Max Phase>  (334) 
0

>  <#Ro5 Violations>  (334) 
1

>  <Molecular Weight>  (334) 
392.67

>  <Ligand Efficiency BEI>  (334) 
nan

>  <Ligand Efficiency LE>  (334) 
nan

>  <Ligand Efficiency LLE>  (334) 
nan

>  <Ligand Efficiency SEI>  (334) 
nan

>  <ALogP>  (334) 
5.81

>  <Assay Organism>  (334) 
nan

>  <Assay Tissue ChEMBL ID>  (334) 
nan

>  <Assay Tissue Name>  (334) 
nan

>  <Assay Cell Type>  (334) 
nan

>  <Assay Subcellular Fraction>  (334) 
nan

>  <Organism Tax ID>  (334) 
9606

>  <BAO Format ID>  (334) 
BAO_0000019

>  <Published Type>  (334) 
nan

>  <Published Relation>  (334) 
nan

>  <Published Value>  (334) 
nan

>  <Published Units>  (334) 
nan

>  <Canonical Smiles>  (334) 
Oc1c2C(=O)CC(Cc2nc3cc(Cl)ccc13)c4ccc(Cl)cc4Cl

>  <Data Validity Comment>  (334) 
nan

>  <Document Journal>  (334) 
nan

>  <Document Year>  (334) 
nan

>  <SRC ID>  (334) 
7

>  <UO Units>  (334) 
UO_0000065

>  <Potential Duplicate>  (334) 
False

>  <Class>  (334) 
0

$$$$

     RDKit          2D

 20 22  0  0  0  0  0  0  0  0999 V2000
    2.7760    0.0000    0.0000 C   0  0  0  0  0  0  0  0  0  0  0  0
    1.2760    0.0000    0.0000 C   0  0  0  0  0  0  0  0  0  0  0  0
    0.3943    1.2135    0.0000 N   0  0  0  0  0  0  0  0  0  0  0  0
   -1.0323    0.7500    0.0000 N   0  0  0  0  0  0  0  0  0  0  0  0
   -1.0323   -0.7500    0.0000 C   0  0  0  0  0  0  0  0  0  0  0  0
   -2.1470   -1.7537    0.0000 O   0  0  0  0  0  0  0  0  0  0  0  0
   -1.8351   -3.2209    0.0000 C   0  0  0  0  0  0  0  0  0  0  0  0
   -0.4086   -3.6844    0.0000 C   0  0  0  0  0  0  0  0  0  0  0  0
   -0.0967   -5.1517    0.0000 C   0  0  0  0  0  0  0  0  0  0  0  0
    0.2152   -6.6189    0.0000 N   0  0  0  0  0  0  0  0  0  0  0  0
    0.7062   -2.6807    0.0000 C   0  0  0  0  0  0  0  0  0  0  0  0
    2.1328   -3.1443    0.0000 C   0  0  0  0  0  0  0  0  0  0  0  0
    3.2475   -2.1406    0.0000 C   0  0  0  0  0  0  0  0  0  0  0  0
    4.6741   -2.6041    0.0000 C   0  0  0  0  0  0  0  0  0  0  0  0
    4.9859   -4.0713    0.0000 C   0  0  0  0  0  0  0  0  0  0  0  0
    3.8712   -5.0750    0.0000 C   0  0  0  0  0  0  0  0  0  0  0  0
    2.4446   -4.6115    0.0000 C   0  0  0  0  0  0  0  0  0  0  0  0
    1.3299   -5.6152    0.0000 Cl  0  0  0  0  0  0  0  0  0  0  0  0
    0.3943   -1.2135    0.0000 C   0  0  0  0  0  0  0  0  0  0  0  0
   -2.9499   -4.2246    0.0000 N   0  0  0  0  0  0  0  0  0  0  0  0
  1  2  1  0
  2  3  2  0
  3  4  1  0
  4  5  1  0
  5  6  1  0
  6  7  1  0
  7  8  2  0
  8  9  1  0
  9 10  3  0
  8 11  1  0
 11 12  1  0
 12 13  2  0
 13 14  1  0
 14 15  2  0
 15 16  1  0
 16 17  2  0
 17 18  1  0
 11 19  1  0
  7 20  1  0
 19  2  1  0
 19  5  2  0
 17 12  1  0
M  END
>  <Molecule>  (335) 
CHEMBL1970189

>  <Standard Type>  (335) 
Ki

>  <Standard Relation>  (335) 
>

>  <Standard Value>  (335) 
1584.89

>  <Standard Units>  (335) 
nM

>  <pChEMBL Value>  (335) 
nan

>  <Comment>  (335) 
inactive

>  <Compound Key>  (335) 
SID103905102

>  <Assay>  (335) 
CHEMBL1963742

>  <Assay Description>  (335) 
PUBCHEM_BIOASSAY: Navigating the Kinome. (Class of assay: other) Panel member name: JAK3

>  <BAO Format>  (335) 
assay format

>  <Target>  (335) 
CHEMBL2148

>  <Target Pref. Name>  (335) 
Tyrosine-protein kinase JAK3

>  <Target Organism>  (335) 
Homo sapiens

>  <Target Type>  (335) 
SINGLE PROTEIN

>  <Document>  (335) 
CHEMBL1201862

>  <Source>  (335) 
PubChem BioAssays

>  <Max Phase>  (335) 
0

>  <#Ro5 Violations>  (335) 
0

>  <Molecular Weight>  (335) 
286.72

>  <Ligand Efficiency BEI>  (335) 
nan

>  <Ligand Efficiency LE>  (335) 
nan

>  <Ligand Efficiency LLE>  (335) 
nan

>  <Ligand Efficiency SEI>  (335) 
nan

>  <ALogP>  (335) 
2.59

>  <Assay Organism>  (335) 
nan

>  <Assay Tissue ChEMBL ID>  (335) 
nan

>  <Assay Tissue Name>  (335) 
nan

>  <Assay Cell Type>  (335) 
nan

>  <Assay Subcellular Fraction>  (335) 
nan

>  <Organism Tax ID>  (335) 
9606

>  <BAO Format ID>  (335) 
BAO_0000019

>  <Published Type>  (335) 
nan

>  <Published Relation>  (335) 
nan

>  <Published Value>  (335) 
nan

>  <Published Units>  (335) 
nan

>  <Canonical Smiles>  (335) 
Cc1n[nH]c2OC(=C(C#N)C(c3ccccc3Cl)c12)N

>  <Data Validity Comment>  (335) 
nan

>  <Document Journal>  (335) 
nan

>  <Document Year>  (335) 
nan

>  <SRC ID>  (335) 
7

>  <UO Units>  (335) 
UO_0000065

>  <Potential Duplicate>  (335) 
False

>  <Class>  (335) 
0

$$$$

     RDKit          2D

 27 29  0  0  0  0  0  0  0  0999 V2000
    6.0000   -2.5981    0.0000 C   0  0  0  0  0  0  0  0  0  0  0  0
    5.2500   -1.2990    0.0000 C   0  0  0  0  0  0  0  0  0  0  0  0
    3.7500   -1.2990    0.0000 C   0  0  0  0  0  0  0  0  0  0  0  0
    3.0000    0.0000    0.0000 O   0  0  0  0  0  0  0  0  0  0  0  0
    1.5000    0.0000    0.0000 C   0  0  0  0  0  0  0  0  0  0  0  0
    0.7500   -1.2990    0.0000 C   0  0  0  0  0  0  0  0  0  0  0  0
   -0.7500   -1.2990    0.0000 C   0  0  0  0  0  0  0  0  0  0  0  0
   -1.5000    0.0000    0.0000 C   0  0  0  0  0  0  0  0  0  0  0  0
   -0.7500    1.2990    0.0000 C   0  0  0  0  0  0  0  0  0  0  0  0
    0.7500    1.2990    0.0000 C   0  0  0  0  0  0  0  0  0  0  0  0
   -1.5000    2.5981    0.0000 C   0  0  0  0  0  0  0  0  0  0  0  0
   -0.7500    3.8971    0.0000 C   0  0  0  0  0  0  0  0  0  0  0  0
   -3.0000    2.5981    0.0000 N   0  0  0  0  0  0  0  0  0  0  0  0
   -3.7500    3.8971    0.0000 C   0  0  0  0  0  0  0  0  0  0  0  0
   -3.0000    5.1962    0.0000 O   0  0  0  0  0  0  0  0  0  0  0  0
   -5.2500    3.8971    0.0000 C   0  0  0  0  0  0  0  0  0  0  0  0
   -6.0000    5.1962    0.0000 C   0  0  0  0  0  0  0  0  0  0  0  0
   -7.5000    5.1962    0.0000 C   0  0  0  0  0  0  0  0  0  0  0  0
   -8.2500    3.8971    0.0000 C   0  0  0  0  0  0  0  0  0  0  0  0
   -7.5000    2.5981    0.0000 C   0  0  0  0  0  0  0  0  0  0  0  0
   -6.0000    2.5981    0.0000 C   0  0  0  0  0  0  0  0  0  0  0  0
   -9.7500    3.8971    0.0000 C   0  0  0  0  0  0  0  0  0  0  0  0
  -10.5000    5.1962    0.0000 C   0  0  0  0  0  0  0  0  0  0  0  0
  -12.0000    5.1962    0.0000 C   0  0  0  0  0  0  0  0  0  0  0  0
  -12.7500    3.8971    0.0000 N   0  0  0  0  0  0  0  0  0  0  0  0
  -12.0000    2.5981    0.0000 C   0  0  0  0  0  0  0  0  0  0  0  0
  -10.5000    2.5981    0.0000 C   0  0  0  0  0  0  0  0  0  0  0  0
  1  2  1  0
  2  3  1  0
  3  4  1  0
  4  5  1  0
  5  6  2  0
  6  7  1  0
  7  8  2  0
  8  9  1  0
  9 10  2  0
  9 11  1  0
 11 12  1  0
 11 13  1  0
 13 14  1  0
 14 15  2  0
 14 16  1  0
 16 17  2  0
 17 18  1  0
 18 19  2  0
 19 20  1  0
 20 21  2  0
 19 22  1  0
 22 23  2  0
 23 24  1  0
 24 25  2  0
 25 26  1  0
 26 27  2  0
 10  5  1  0
 21 16  1  0
 27 22  1  0
M  END
>  <Molecule>  (336) 
CHEMBL2007296

>  <Standard Type>  (336) 
Ki

>  <Standard Relation>  (336) 
>

>  <Standard Value>  (336) 
1584.89

>  <Standard Units>  (336) 
nM

>  <pChEMBL Value>  (336) 
nan

>  <Comment>  (336) 
inactive

>  <Compound Key>  (336) 
SID103904566

>  <Assay>  (336) 
CHEMBL1963742

>  <Assay Description>  (336) 
PUBCHEM_BIOASSAY: Navigating the Kinome. (Class of assay: other) Panel member name: JAK3

>  <BAO Format>  (336) 
assay format

>  <Target>  (336) 
CHEMBL2148

>  <Target Pref. Name>  (336) 
Tyrosine-protein kinase JAK3

>  <Target Organism>  (336) 
Homo sapiens

>  <Target Type>  (336) 
SINGLE PROTEIN

>  <Document>  (336) 
CHEMBL1201862

>  <Source>  (336) 
PubChem BioAssays

>  <Max Phase>  (336) 
0

>  <#Ro5 Violations>  (336) 
1

>  <Molecular Weight>  (336) 
360.46

>  <Ligand Efficiency BEI>  (336) 
nan

>  <Ligand Efficiency LE>  (336) 
nan

>  <Ligand Efficiency LLE>  (336) 
nan

>  <Ligand Efficiency SEI>  (336) 
nan

>  <ALogP>  (336) 
5.03

>  <Assay Organism>  (336) 
nan

>  <Assay Tissue ChEMBL ID>  (336) 
nan

>  <Assay Tissue Name>  (336) 
nan

>  <Assay Cell Type>  (336) 
nan

>  <Assay Subcellular Fraction>  (336) 
nan

>  <Organism Tax ID>  (336) 
9606

>  <BAO Format ID>  (336) 
BAO_0000019

>  <Published Type>  (336) 
nan

>  <Published Relation>  (336) 
nan

>  <Published Value>  (336) 
nan

>  <Published Units>  (336) 
nan

>  <Canonical Smiles>  (336) 
CCCOc1cccc(c1)C(C)NC(=O)c2ccc(cc2)c3ccncc3

>  <Data Validity Comment>  (336) 
nan

>  <Document Journal>  (336) 
nan

>  <Document Year>  (336) 
nan

>  <SRC ID>  (336) 
7

>  <UO Units>  (336) 
UO_0000065

>  <Potential Duplicate>  (336) 
False

>  <Class>  (336) 
0

$$$$

     RDKit          2D

 17 19  0  0  0  0  0  0  0  0999 V2000
    1.0152   -8.4216    0.0000 C   0  0  0  0  0  0  0  0  0  0  0  0
    1.1273   -6.9258    0.0000 C   0  0  0  0  0  0  0  0  0  0  0  0
    2.4787   -6.2750    0.0000 C   0  0  0  0  0  0  0  0  0  0  0  0
    2.5908   -4.7792    0.0000 C   0  0  0  0  0  0  0  0  0  0  0  0
    1.3515   -3.9342    0.0000 C   0  0  0  0  0  0  0  0  0  0  0  0
    1.6852   -2.4718    0.0000 N   0  0  0  0  0  0  0  0  0  0  0  0
    0.7500   -1.2990    0.0000 C   0  0  0  0  0  0  0  0  0  0  0  0
    1.5000    0.0000    0.0000 C   0  0  0  0  0  0  0  0  0  0  0  0
    0.7500    1.2990    0.0000 C   0  0  0  0  0  0  0  0  0  0  0  0
   -0.7500    1.2990    0.0000 C   0  0  0  0  0  0  0  0  0  0  0  0
   -1.5000    0.0000    0.0000 C   0  0  0  0  0  0  0  0  0  0  0  0
   -0.7500   -1.2990    0.0000 C   0  0  0  0  0  0  0  0  0  0  0  0
   -1.6852   -2.4718    0.0000 C   0  0  0  0  0  0  0  0  0  0  0  0
   -3.1476   -2.1380    0.0000 O   0  0  0  0  0  0  0  0  0  0  0  0
   -1.3515   -3.9342    0.0000 N   0  0  0  0  0  0  0  0  0  0  0  0
    0.0000   -4.5850    0.0000 C   0  0  0  0  0  0  0  0  0  0  0  0
   -0.1121   -6.0808    0.0000 C   0  0  0  0  0  0  0  0  0  0  0  0
  1  2  1  0
  2  3  2  0
  3  4  1  0
  4  5  2  0
  5  6  1  0
  6  7  1  0
  7  8  2  0
  8  9  1  0
  9 10  2  0
 10 11  1  0
 11 12  2  0
 12 13  1  0
 13 14  2  0
 13 15  1  0
 15 16  1  0
 16 17  2  0
 17  2  1  0
 16  5  1  0
 12  7  1  0
M  END
>  <Molecule>  (337) 
CHEMBL1999714

>  <Standard Type>  (337) 
Ki

>  <Standard Relation>  (337) 
>

>  <Standard Value>  (337) 
1584.89

>  <Standard Units>  (337) 
nM

>  <pChEMBL Value>  (337) 
nan

>  <Comment>  (337) 
inactive

>  <Compound Key>  (337) 
SID103904727

>  <Assay>  (337) 
CHEMBL1963742

>  <Assay Description>  (337) 
PUBCHEM_BIOASSAY: Navigating the Kinome. (Class of assay: other) Panel member name: JAK3

>  <BAO Format>  (337) 
assay format

>  <Target>  (337) 
CHEMBL2148

>  <Target Pref. Name>  (337) 
Tyrosine-protein kinase JAK3

>  <Target Organism>  (337) 
Homo sapiens

>  <Target Type>  (337) 
SINGLE PROTEIN

>  <Document>  (337) 
CHEMBL1201862

>  <Source>  (337) 
PubChem BioAssays

>  <Max Phase>  (337) 
0

>  <#Ro5 Violations>  (337) 
0

>  <Molecular Weight>  (337) 
224.26

>  <Ligand Efficiency BEI>  (337) 
nan

>  <Ligand Efficiency LE>  (337) 
nan

>  <Ligand Efficiency LLE>  (337) 
nan

>  <Ligand Efficiency SEI>  (337) 
nan

>  <ALogP>  (337) 
3.3

>  <Assay Organism>  (337) 
nan

>  <Assay Tissue ChEMBL ID>  (337) 
nan

>  <Assay Tissue Name>  (337) 
nan

>  <Assay Cell Type>  (337) 
nan

>  <Assay Subcellular Fraction>  (337) 
nan

>  <Organism Tax ID>  (337) 
9606

>  <BAO Format ID>  (337) 
BAO_0000019

>  <Published Type>  (337) 
nan

>  <Published Relation>  (337) 
nan

>  <Published Value>  (337) 
nan

>  <Published Units>  (337) 
nan

>  <Canonical Smiles>  (337) 
Cc1ccc2Nc3ccccc3C(=O)Nc2c1

>  <Data Validity Comment>  (337) 
nan

>  <Document Journal>  (337) 
nan

>  <Document Year>  (337) 
nan

>  <SRC ID>  (337) 
7

>  <UO Units>  (337) 
UO_0000065

>  <Potential Duplicate>  (337) 
False

>  <Class>  (337) 
0

$$$$

     RDKit          2D

 30 34  0  0  0  0  0  0  0  0999 V2000
   -0.7500   -9.0933    0.0000 N   0  0  0  0  0  0  0  0  0  0  0  0
   -1.5000   -7.7942    0.0000 C   0  0  0  0  0  0  0  0  0  0  0  0
   -0.7500   -6.4952    0.0000 C   0  0  0  0  0  0  0  0  0  0  0  0
    0.7500   -6.4952    0.0000 O   0  0  0  0  0  0  0  0  0  0  0  0
    1.5000   -5.1962    0.0000 C   0  0  0  0  0  0  0  0  0  0  0  0
    3.0000   -5.1962    0.0000 C   0  0  0  0  0  0  0  0  0  0  0  0
    3.7500   -3.8971    0.0000 N   0  0  0  0  0  0  0  0  0  0  0  0
    3.0000   -2.5981    0.0000 C   0  0  0  0  0  0  0  0  0  0  0  0
    1.5000   -2.5981    0.0000 C   0  0  0  0  0  0  0  0  0  0  0  0
    0.7500   -3.8971    0.0000 C   0  0  0  0  0  0  0  0  0  0  0  0
    0.7500   -1.2990    0.0000 C   0  0  0  0  0  0  0  0  0  0  0  0
    1.5000    0.0000    0.0000 C   0  0  0  0  0  0  0  0  0  0  0  0
    0.7500    1.2990    0.0000 C   0  0  0  0  0  0  0  0  0  0  0  0
   -0.7500    1.2990    0.0000 C   0  0  0  0  0  0  0  0  0  0  0  0
   -1.7537    2.4138    0.0000 N   0  0  0  0  0  0  0  0  0  0  0  0
   -3.1240    1.8037    0.0000 C   0  0  0  0  0  0  0  0  0  0  0  0
   -4.4231    2.5537    0.0000 O   0  0  0  0  0  0  0  0  0  0  0  0
   -2.9672    0.3119    0.0000 C   0  0  0  0  0  0  0  0  0  0  0  0
   -1.5000    0.0000    0.0000 C   0  0  0  0  0  0  0  0  0  0  0  0
   -0.7500   -1.2990    0.0000 C   0  0  0  0  0  0  0  0  0  0  0  0
   -3.0000   -7.7942    0.0000 C   0  0  0  0  0  0  0  0  0  0  0  0
   -3.7500   -9.0933    0.0000 C   0  0  0  0  0  0  0  0  0  0  0  0
   -3.1399  -10.4636    0.0000 C   0  0  0  0  0  0  0  0  0  0  0  0
   -4.2546  -11.4673    0.0000 N   0  0  0  0  0  0  0  0  0  0  0  0
   -5.5537  -10.7173    0.0000 C   0  0  0  0  0  0  0  0  0  0  0  0
   -6.9802  -11.1808    0.0000 C   0  0  0  0  0  0  0  0  0  0  0  0
   -8.0950  -10.1771    0.0000 C   0  0  0  0  0  0  0  0  0  0  0  0
   -7.7831   -8.7099    0.0000 C   0  0  0  0  0  0  0  0  0  0  0  0
   -6.3565   -8.2464    0.0000 C   0  0  0  0  0  0  0  0  0  0  0  0
   -5.2418   -9.2501    0.0000 C   0  0  0  0  0  0  0  0  0  0  0  0
  1  2  1  0
  2  3  1  0
  3  4  1  0
  4  5  1  0
  5  6  2  0
  6  7  1  0
  7  8  2  0
  8  9  1  0
  9 10  2  0
  9 11  1  0
 11 12  2  0
 12 13  1  0
 13 14  2  0
 14 15  1  0
 15 16  1  0
 16 17  2  0
 16 18  1  0
 18 19  1  0
 19 20  2  0
  2 21  1  0
 21 22  1  0
 22 23  2  0
 23 24  1  0
 24 25  1  0
 25 26  2  0
 26 27  1  0
 27 28  2  0
 28 29  1  0
 29 30  2  0
 10  5  1  0
 20 11  1  0
 19 14  1  0
 30 22  1  0
 30 25  1  0
M  END
>  <Molecule>  (338) 
CHEMBL1967302

>  <Standard Type>  (338) 
Ki

>  <Standard Relation>  (338) 
>

>  <Standard Value>  (338) 
1584.89

>  <Standard Units>  (338) 
nM

>  <pChEMBL Value>  (338) 
nan

>  <Comment>  (338) 
inactive

>  <Compound Key>  (338) 
SID103904477

>  <Assay>  (338) 
CHEMBL1963742

>  <Assay Description>  (338) 
PUBCHEM_BIOASSAY: Navigating the Kinome. (Class of assay: other) Panel member name: JAK3

>  <BAO Format>  (338) 
assay format

>  <Target>  (338) 
CHEMBL2148

>  <Target Pref. Name>  (338) 
Tyrosine-protein kinase JAK3

>  <Target Organism>  (338) 
Homo sapiens

>  <Target Type>  (338) 
SINGLE PROTEIN

>  <Document>  (338) 
CHEMBL1201862

>  <Source>  (338) 
PubChem BioAssays

>  <Max Phase>  (338) 
0

>  <#Ro5 Violations>  (338) 
0

>  <Molecular Weight>  (338) 
398.47

>  <Ligand Efficiency BEI>  (338) 
nan

>  <Ligand Efficiency LE>  (338) 
nan

>  <Ligand Efficiency LLE>  (338) 
nan

>  <Ligand Efficiency SEI>  (338) 
nan

>  <ALogP>  (338) 
3.67

>  <Assay Organism>  (338) 
nan

>  <Assay Tissue ChEMBL ID>  (338) 
nan

>  <Assay Tissue Name>  (338) 
nan

>  <Assay Cell Type>  (338) 
nan

>  <Assay Subcellular Fraction>  (338) 
nan

>  <Organism Tax ID>  (338) 
9606

>  <BAO Format ID>  (338) 
BAO_0000019

>  <Published Type>  (338) 
nan

>  <Published Relation>  (338) 
nan

>  <Published Value>  (338) 
nan

>  <Published Units>  (338) 
nan

>  <Canonical Smiles>  (338) 
NC(COc1cncc(c1)c2ccc3NC(=O)Cc3c2)Cc4c[nH]c5ccccc45

>  <Data Validity Comment>  (338) 
nan

>  <Document Journal>  (338) 
nan

>  <Document Year>  (338) 
nan

>  <SRC ID>  (338) 
7

>  <UO Units>  (338) 
UO_0000065

>  <Potential Duplicate>  (338) 
False

>  <Class>  (338) 
0

$$$$

     RDKit          2D

 29 32  0  0  0  0  0  0  0  0999 V2000
   -6.9771   -5.6725    0.0000 N   0  0  0  0  0  0  0  0  0  0  0  0
   -5.4853   -5.8293    0.0000 C   0  0  0  0  0  0  0  0  0  0  0  0
   -4.8752   -7.1996    0.0000 O   0  0  0  0  0  0  0  0  0  0  0  0
   -4.6036   -4.6157    0.0000 C   0  0  0  0  0  0  0  0  0  0  0  0
   -3.1036   -4.6157    0.0000 S   0  0  0  0  0  0  0  0  0  0  0  0
   -2.6401   -3.1891    0.0000 C   0  0  0  0  0  0  0  0  0  0  0  0
   -3.8536   -2.3075    0.0000 C   0  0  0  0  0  0  0  0  0  0  0  0
   -5.0672   -3.1891    0.0000 C   0  0  0  0  0  0  0  0  0  0  0  0
   -6.4937   -2.7256    0.0000 O   0  0  0  0  0  0  0  0  0  0  0  0
   -6.8056   -1.2584    0.0000 C   0  0  0  0  0  0  0  0  0  0  0  0
   -8.2322   -0.7949    0.0000 C   0  0  0  0  0  0  0  0  0  0  0  0
   -8.5441    0.6723    0.0000 C   0  0  0  0  0  0  0  0  0  0  0  0
   -9.9707    1.1359    0.0000 C   0  0  0  0  0  0  0  0  0  0  0  0
  -11.0854    0.1322    0.0000 C   0  0  0  0  0  0  0  0  0  0  0  0
  -10.7735   -1.3350    0.0000 C   0  0  0  0  0  0  0  0  0  0  0  0
   -9.3469   -1.7986    0.0000 C   0  0  0  0  0  0  0  0  0  0  0  0
   -9.0350   -3.2658    0.0000 C   0  0  0  0  0  0  0  0  0  0  0  0
   -8.7232   -4.7330    0.0000 F   0  0  0  0  0  0  0  0  0  0  0  0
  -10.5023   -3.5777    0.0000 F   0  0  0  0  0  0  0  0  0  0  0  0
   -7.5678   -2.9539    0.0000 F   0  0  0  0  0  0  0  0  0  0  0  0
   -1.2135   -2.7256    0.0000 N   0  0  0  0  0  0  0  0  0  0  0  0
    0.0000   -3.6073    0.0000 C   0  0  0  0  0  0  0  0  0  0  0  0
    1.2135   -2.7256    0.0000 N   0  0  0  0  0  0  0  0  0  0  0  0
    0.7500   -1.2990    0.0000 C   0  0  0  0  0  0  0  0  0  0  0  0
    1.5000    0.0000    0.0000 C   0  0  0  0  0  0  0  0  0  0  0  0
    0.7500    1.2990    0.0000 C   0  0  0  0  0  0  0  0  0  0  0  0
   -0.7500    1.2990    0.0000 C   0  0  0  0  0  0  0  0  0  0  0  0
   -1.5000    0.0000    0.0000 C   0  0  0  0  0  0  0  0  0  0  0  0
   -0.7500   -1.2990    0.0000 C   0  0  0  0  0  0  0  0  0  0  0  0
  1  2  1  0
  2  3  2  0
  2  4  1  0
  4  5  1  0
  5  6  1  0
  6  7  2  0
  7  8  1  0
  8  9  1  0
  9 10  1  0
 10 11  1  0
 11 12  2  0
 12 13  1  0
 13 14  2  0
 14 15  1  0
 15 16  2  0
 16 17  1  0
 17 18  1  0
 17 19  1  0
 17 20  1  0
  6 21  1  0
 21 22  1  0
 22 23  2  0
 23 24  1  0
 24 25  2  0
 25 26  1  0
 26 27  2  0
 27 28  1  0
 28 29  2  0
  8  4  2  0
 16 11  1  0
 29 21  1  0
 29 24  1  0
M  END
>  <Molecule>  (339) 
CHEMBL481491

>  <Standard Type>  (339) 
Ki

>  <Standard Relation>  (339) 
>

>  <Standard Value>  (339) 
1584.89

>  <Standard Units>  (339) 
nM

>  <pChEMBL Value>  (339) 
nan

>  <Comment>  (339) 
inactive

>  <Compound Key>  (339) 
SID103905430

>  <Assay>  (339) 
CHEMBL1963742

>  <Assay Description>  (339) 
PUBCHEM_BIOASSAY: Navigating the Kinome. (Class of assay: other) Panel member name: JAK3

>  <BAO Format>  (339) 
assay format

>  <Target>  (339) 
CHEMBL2148

>  <Target Pref. Name>  (339) 
Tyrosine-protein kinase JAK3

>  <Target Organism>  (339) 
Homo sapiens

>  <Target Type>  (339) 
SINGLE PROTEIN

>  <Document>  (339) 
CHEMBL1201862

>  <Source>  (339) 
PubChem BioAssays

>  <Max Phase>  (339) 
0

>  <#Ro5 Violations>  (339) 
0

>  <Molecular Weight>  (339) 
417.41

>  <Ligand Efficiency BEI>  (339) 
nan

>  <Ligand Efficiency LE>  (339) 
nan

>  <Ligand Efficiency LLE>  (339) 
nan

>  <Ligand Efficiency SEI>  (339) 
nan

>  <ALogP>  (339) 
4.78

>  <Assay Organism>  (339) 
nan

>  <Assay Tissue ChEMBL ID>  (339) 
nan

>  <Assay Tissue Name>  (339) 
nan

>  <Assay Cell Type>  (339) 
nan

>  <Assay Subcellular Fraction>  (339) 
nan

>  <Organism Tax ID>  (339) 
9606

>  <BAO Format ID>  (339) 
BAO_0000019

>  <Published Type>  (339) 
nan

>  <Published Relation>  (339) 
nan

>  <Published Value>  (339) 
nan

>  <Published Units>  (339) 
nan

>  <Canonical Smiles>  (339) 
NC(=O)c1sc(cc1OCc2ccccc2C(F)(F)F)n3cnc4ccccc34

>  <Data Validity Comment>  (339) 
nan

>  <Document Journal>  (339) 
nan

>  <Document Year>  (339) 
nan

>  <SRC ID>  (339) 
7

>  <UO Units>  (339) 
UO_0000065

>  <Potential Duplicate>  (339) 
False

>  <Class>  (339) 
0

$$$$

     RDKit          2D

 28 31  0  0  0  0  0  0  0  0999 V2000
    8.0406   12.1352    0.0000 C   0  0  0  0  0  0  0  0  0  0  0  0
    7.5771   10.7086    0.0000 C   0  0  0  0  0  0  0  0  0  0  0  0
    8.5808    9.5939    0.0000 C   0  0  0  0  0  0  0  0  0  0  0  0
    8.1173    8.1673    0.0000 C   0  0  0  0  0  0  0  0  0  0  0  0
    6.6501    7.8555    0.0000 C   0  0  0  0  0  0  0  0  0  0  0  0
    5.6464    8.9702    0.0000 C   0  0  0  0  0  0  0  0  0  0  0  0
    4.1791    8.6583    0.0000 N   0  0  0  0  0  0  0  0  0  0  0  0
    3.7156    7.2317    0.0000 C   0  0  0  0  0  0  0  0  0  0  0  0
    4.7193    6.1170    0.0000 O   0  0  0  0  0  0  0  0  0  0  0  0
    2.2484    6.9199    0.0000 N   0  0  0  0  0  0  0  0  0  0  0  0
    1.7849    5.4933    0.0000 C   0  0  0  0  0  0  0  0  0  0  0  0
    0.3177    5.1814    0.0000 C   0  0  0  0  0  0  0  0  0  0  0  0
   -0.1459    3.7548    0.0000 C   0  0  0  0  0  0  0  0  0  0  0  0
    0.8578    2.6401    0.0000 C   0  0  0  0  0  0  0  0  0  0  0  0
    2.3250    2.9520    0.0000 C   0  0  0  0  0  0  0  0  0  0  0  0
    2.7886    4.3786    0.0000 C   0  0  0  0  0  0  0  0  0  0  0  0
    0.3943    1.2135    0.0000 C   0  0  0  0  0  0  0  0  0  0  0  0
    1.2760    0.0000    0.0000 C   0  0  0  0  0  0  0  0  0  0  0  0
    0.3943   -1.2135    0.0000 S   0  0  0  0  0  0  0  0  0  0  0  0
   -1.0323   -0.7500    0.0000 C   0  0  0  0  0  0  0  0  0  0  0  0
   -2.3313   -1.5000    0.0000 N   0  0  0  0  0  0  0  0  0  0  0  0
   -3.6304   -0.7500    0.0000 C   0  0  0  0  0  0  0  0  0  0  0  0
   -4.9294   -1.5000    0.0000 N   0  0  0  0  0  0  0  0  0  0  0  0
   -3.6304    0.7500    0.0000 N   0  0  0  0  0  0  0  0  0  0  0  0
   -2.3313    1.5000    0.0000 C   0  0  0  0  0  0  0  0  0  0  0  0
   -2.3313    3.0000    0.0000 N   0  0  0  0  0  0  0  0  0  0  0  0
   -1.0323    0.7500    0.0000 C   0  0  0  0  0  0  0  0  0  0  0  0
    6.1099   10.3968    0.0000 C   0  0  0  0  0  0  0  0  0  0  0  0
  1  2  1  0
  2  3  2  0
  3  4  1  0
  4  5  2  0
  5  6  1  0
  6  7  1  0
  7  8  1  0
  8  9  2  0
  8 10  1  0
 10 11  1  0
 11 12  2  0
 12 13  1  0
 13 14  2  0
 14 15  1  0
 15 16  2  0
 14 17  1  0
 17 18  2  0
 18 19  1  0
 19 20  1  0
 20 21  2  0
 21 22  1  0
 22 23  1  0
 22 24  2  0
 24 25  1  0
 25 26  1  0
 25 27  2  0
  6 28  2  0
 28  2  1  0
 16 11  1  0
 27 17  1  0
 27 20  1  0
M  END
>  <Molecule>  (340) 
CHEMBL1973145

>  <Standard Type>  (340) 
Ki

>  <Standard Relation>  (340) 
>

>  <Standard Value>  (340) 
1584.89

>  <Standard Units>  (340) 
nM

>  <pChEMBL Value>  (340) 
nan

>  <Comment>  (340) 
inactive

>  <Compound Key>  (340) 
SID103904363

>  <Assay>  (340) 
CHEMBL1963742

>  <Assay Description>  (340) 
PUBCHEM_BIOASSAY: Navigating the Kinome. (Class of assay: other) Panel member name: JAK3

>  <BAO Format>  (340) 
assay format

>  <Target>  (340) 
CHEMBL2148

>  <Target Pref. Name>  (340) 
Tyrosine-protein kinase JAK3

>  <Target Organism>  (340) 
Homo sapiens

>  <Target Type>  (340) 
SINGLE PROTEIN

>  <Document>  (340) 
CHEMBL1201862

>  <Source>  (340) 
PubChem BioAssays

>  <Max Phase>  (340) 
0

>  <#Ro5 Violations>  (340) 
0

>  <Molecular Weight>  (340) 
390.47

>  <Ligand Efficiency BEI>  (340) 
nan

>  <Ligand Efficiency LE>  (340) 
nan

>  <Ligand Efficiency LLE>  (340) 
nan

>  <Ligand Efficiency SEI>  (340) 
nan

>  <ALogP>  (340) 
4.48

>  <Assay Organism>  (340) 
nan

>  <Assay Tissue ChEMBL ID>  (340) 
nan

>  <Assay Tissue Name>  (340) 
nan

>  <Assay Cell Type>  (340) 
nan

>  <Assay Subcellular Fraction>  (340) 
nan

>  <Organism Tax ID>  (340) 
9606

>  <BAO Format ID>  (340) 
BAO_0000019

>  <Published Type>  (340) 
nan

>  <Published Relation>  (340) 
nan

>  <Published Value>  (340) 
nan

>  <Published Units>  (340) 
nan

>  <Canonical Smiles>  (340) 
Cc1cccc(NC(=O)Nc2ccc(cc2)c3csc4nc(N)nc(N)c34)c1

>  <Data Validity Comment>  (340) 
nan

>  <Document Journal>  (340) 
nan

>  <Document Year>  (340) 
nan

>  <SRC ID>  (340) 
7

>  <UO Units>  (340) 
UO_0000065

>  <Potential Duplicate>  (340) 
False

>  <Class>  (340) 
0

$$$$

     RDKit          2D

 18 19  0  0  0  0  0  0  0  0999 V2000
    1.3299    5.6152    0.0000 C   0  0  0  0  0  0  0  0  0  0  0  0
   -0.0967    5.1517    0.0000 N   0  0  0  0  0  0  0  0  0  0  0  0
   -1.2114    6.1554    0.0000 C   0  0  0  0  0  0  0  0  0  0  0  0
   -0.4086    3.6844    0.0000 C   0  0  0  0  0  0  0  0  0  0  0  0
    0.7062    2.6807    0.0000 C   0  0  0  0  0  0  0  0  0  0  0  0
    0.3943    1.2135    0.0000 C   0  0  0  0  0  0  0  0  0  0  0  0
    1.2760    0.0000    0.0000 S   0  0  0  0  0  0  0  0  0  0  0  0
    0.3943   -1.2135    0.0000 N   0  0  0  0  0  0  0  0  0  0  0  0
   -1.0323   -0.7500    0.0000 C   0  0  0  0  0  0  0  0  0  0  0  0
   -1.0323    0.7500    0.0000 C   0  0  0  0  0  0  0  0  0  0  0  0
   -2.1470    1.7537    0.0000 C   0  0  0  0  0  0  0  0  0  0  0  0
   -1.8351    3.2209    0.0000 C   0  0  0  0  0  0  0  0  0  0  0  0
   -2.9499    4.2246    0.0000 N   0  0  0  0  0  0  0  0  0  0  0  0
   -4.3764    3.7611    0.0000 C   0  0  0  0  0  0  0  0  0  0  0  0
   -4.6883    2.2939    0.0000 O   0  0  0  0  0  0  0  0  0  0  0  0
   -5.4912    4.7648    0.0000 C   0  0  0  0  0  0  0  0  0  0  0  0
   -5.1793    6.2320    0.0000 O   0  0  0  0  0  0  0  0  0  0  0  0
   -6.9177    4.3013    0.0000 O   0  0  0  0  0  0  0  0  0  0  0  0
  1  2  1  0
  2  3  1  0
  2  4  1  0
  4  5  2  0
  5  6  1  0
  6  7  1  0
  7  8  1  0
  8  9  2  0
  9 10  1  0
 10 11  1  0
 11 12  2  0
 12 13  1  0
 13 14  1  0
 14 15  2  0
 14 16  1  0
 16 17  2  0
 16 18  1  0
 12  4  1  0
 10  6  2  0
M  END
>  <Molecule>  (341) 
CHEMBL1997023

>  <Standard Type>  (341) 
Ki

>  <Standard Relation>  (341) 
>

>  <Standard Value>  (341) 
1584.89

>  <Standard Units>  (341) 
nM

>  <pChEMBL Value>  (341) 
nan

>  <Comment>  (341) 
inactive

>  <Compound Key>  (341) 
SID103905667

>  <Assay>  (341) 
CHEMBL1963742

>  <Assay Description>  (341) 
PUBCHEM_BIOASSAY: Navigating the Kinome. (Class of assay: other) Panel member name: JAK3

>  <BAO Format>  (341) 
assay format

>  <Target>  (341) 
CHEMBL2148

>  <Target Pref. Name>  (341) 
Tyrosine-protein kinase JAK3

>  <Target Organism>  (341) 
Homo sapiens

>  <Target Type>  (341) 
SINGLE PROTEIN

>  <Document>  (341) 
CHEMBL1201862

>  <Source>  (341) 
PubChem BioAssays

>  <Max Phase>  (341) 
0

>  <#Ro5 Violations>  (341) 
0

>  <Molecular Weight>  (341) 
265.29

>  <Ligand Efficiency BEI>  (341) 
nan

>  <Ligand Efficiency LE>  (341) 
nan

>  <Ligand Efficiency LLE>  (341) 
nan

>  <Ligand Efficiency SEI>  (341) 
nan

>  <ALogP>  (341) 
1.39

>  <Assay Organism>  (341) 
nan

>  <Assay Tissue ChEMBL ID>  (341) 
nan

>  <Assay Tissue Name>  (341) 
nan

>  <Assay Cell Type>  (341) 
nan

>  <Assay Subcellular Fraction>  (341) 
nan

>  <Organism Tax ID>  (341) 
9606

>  <BAO Format ID>  (341) 
BAO_0000019

>  <Published Type>  (341) 
nan

>  <Published Relation>  (341) 
nan

>  <Published Value>  (341) 
nan

>  <Published Units>  (341) 
nan

>  <Canonical Smiles>  (341) 
CN(C)c1cc2sncc2cc1NC(=O)C(=O)O

>  <Data Validity Comment>  (341) 
nan

>  <Document Journal>  (341) 
nan

>  <Document Year>  (341) 
nan

>  <SRC ID>  (341) 
7

>  <UO Units>  (341) 
UO_0000065

>  <Potential Duplicate>  (341) 
False

>  <Class>  (341) 
0

$$$$

     RDKit          2D

 26 29  0  0  0  0  0  0  0  0999 V2000
   -4.9294   -7.5000    0.0000 C   0  0  0  0  0  0  0  0  0  0  0  0
   -4.9294   -6.0000    0.0000 N   0  0  0  0  0  0  0  0  0  0  0  0
   -3.6304   -5.2500    0.0000 C   0  0  0  0  0  0  0  0  0  0  0  0
   -2.3313   -6.0000    0.0000 O   0  0  0  0  0  0  0  0  0  0  0  0
   -3.6304   -3.7500    0.0000 C   0  0  0  0  0  0  0  0  0  0  0  0
   -2.3313   -3.0000    0.0000 C   0  0  0  0  0  0  0  0  0  0  0  0
   -2.3313   -1.5000    0.0000 C   0  0  0  0  0  0  0  0  0  0  0  0
   -3.6304   -0.7500    0.0000 C   0  0  0  0  0  0  0  0  0  0  0  0
   -3.6304    0.7500    0.0000 N   0  0  0  0  0  0  0  0  0  0  0  0
   -2.3313    1.5000    0.0000 C   0  0  0  0  0  0  0  0  0  0  0  0
   -2.3313    3.0000    0.0000 N   0  0  0  0  0  0  0  0  0  0  0  0
   -1.0323    0.7500    0.0000 C   0  0  0  0  0  0  0  0  0  0  0  0
    0.3943    1.2135    0.0000 C   0  0  0  0  0  0  0  0  0  0  0  0
    1.2760    0.0000    0.0000 C   0  0  0  0  0  0  0  0  0  0  0  0
    0.3943   -1.2135    0.0000 S   0  0  0  0  0  0  0  0  0  0  0  0
   -1.0323   -0.7500    0.0000 C   0  0  0  0  0  0  0  0  0  0  0  0
    0.8578    2.6401    0.0000 C   0  0  0  0  0  0  0  0  0  0  0  0
   -0.1459    3.7548    0.0000 C   0  0  0  0  0  0  0  0  0  0  0  0
    0.3177    5.1814    0.0000 C   0  0  0  0  0  0  0  0  0  0  0  0
    1.7849    5.4933    0.0000 C   0  0  0  0  0  0  0  0  0  0  0  0
    2.5349    6.7923    0.0000 S   0  0  0  0  0  0  0  0  0  0  0  0
    4.0021    6.4805    0.0000 C   0  0  0  0  0  0  0  0  0  0  0  0
    5.1168    7.4841    0.0000 C   0  0  0  0  0  0  0  0  0  0  0  0
    4.1589    4.9887    0.0000 N   0  0  0  0  0  0  0  0  0  0  0  0
    2.7886    4.3786    0.0000 C   0  0  0  0  0  0  0  0  0  0  0  0
    2.3250    2.9520    0.0000 C   0  0  0  0  0  0  0  0  0  0  0  0
  1  2  1  0
  2  3  1  0
  3  4  2  0
  3  5  1  0
  5  6  2  3
  6  7  1  0
  7  8  2  0
  8  9  1  0
  9 10  2  0
 10 11  1  0
 10 12  1  0
 12 13  1  0
 13 14  2  0
 14 15  1  0
 15 16  1  0
 13 17  1  0
 17 18  2  0
 18 19  1  0
 19 20  2  0
 20 21  1  0
 21 22  1  0
 22 23  1  0
 22 24  2  0
 24 25  1  0
 25 26  2  0
 16  7  1  0
 16 12  2  0
 26 17  1  0
 25 20  1  0
M  END
>  <Molecule>  (342) 
CHEMBL1968590

>  <Standard Type>  (342) 
Ki

>  <Standard Relation>  (342) 
>

>  <Standard Value>  (342) 
1584.89

>  <Standard Units>  (342) 
nM

>  <pChEMBL Value>  (342) 
nan

>  <Comment>  (342) 
inactive

>  <Compound Key>  (342) 
SID103905091

>  <Assay>  (342) 
CHEMBL1963742

>  <Assay Description>  (342) 
PUBCHEM_BIOASSAY: Navigating the Kinome. (Class of assay: other) Panel member name: JAK3

>  <BAO Format>  (342) 
assay format

>  <Target>  (342) 
CHEMBL2148

>  <Target Pref. Name>  (342) 
Tyrosine-protein kinase JAK3

>  <Target Organism>  (342) 
Homo sapiens

>  <Target Type>  (342) 
SINGLE PROTEIN

>  <Document>  (342) 
CHEMBL1201862

>  <Source>  (342) 
PubChem BioAssays

>  <Max Phase>  (342) 
0

>  <#Ro5 Violations>  (342) 
0

>  <Molecular Weight>  (342) 
380.5

>  <Ligand Efficiency BEI>  (342) 
nan

>  <Ligand Efficiency LE>  (342) 
nan

>  <Ligand Efficiency LLE>  (342) 
nan

>  <Ligand Efficiency SEI>  (342) 
nan

>  <ALogP>  (342) 
4.22

>  <Assay Organism>  (342) 
nan

>  <Assay Tissue ChEMBL ID>  (342) 
nan

>  <Assay Tissue Name>  (342) 
nan

>  <Assay Cell Type>  (342) 
nan

>  <Assay Subcellular Fraction>  (342) 
nan

>  <Organism Tax ID>  (342) 
9606

>  <BAO Format ID>  (342) 
BAO_0000019

>  <Published Type>  (342) 
nan

>  <Published Relation>  (342) 
nan

>  <Published Value>  (342) 
nan

>  <Published Units>  (342) 
nan

>  <Canonical Smiles>  (342) 
CNC(=O)C=Cc1cnc(N)c2c(csc12)c3ccc4sc(C)nc4c3

>  <Data Validity Comment>  (342) 
nan

>  <Document Journal>  (342) 
nan

>  <Document Year>  (342) 
nan

>  <SRC ID>  (342) 
7

>  <UO Units>  (342) 
UO_0000065

>  <Potential Duplicate>  (342) 
False

>  <Class>  (342) 
0

$$$$

     RDKit          2D

 36 41  0  0  0  0  0  0  0  0999 V2000
   -0.7500   -9.0933    0.0000 N   0  0  0  0  0  0  0  0  0  0  0  0
   -1.5000   -7.7942    0.0000 C   0  0  0  0  0  0  0  0  0  0  0  0
   -0.7500   -6.4952    0.0000 C   0  0  0  0  0  0  0  0  0  0  0  0
    0.7500   -6.4952    0.0000 O   0  0  0  0  0  0  0  0  0  0  0  0
    1.5000   -5.1962    0.0000 C   0  0  0  0  0  0  0  0  0  0  0  0
    3.0000   -5.1962    0.0000 C   0  0  0  0  0  0  0  0  0  0  0  0
    3.7500   -3.8971    0.0000 N   0  0  0  0  0  0  0  0  0  0  0  0
    3.0000   -2.5981    0.0000 C   0  0  0  0  0  0  0  0  0  0  0  0
    1.5000   -2.5981    0.0000 C   0  0  0  0  0  0  0  0  0  0  0  0
    0.7500   -3.8971    0.0000 C   0  0  0  0  0  0  0  0  0  0  0  0
    0.7500   -1.2990    0.0000 C   0  0  0  0  0  0  0  0  0  0  0  0
    1.5000    0.0000    0.0000 C   0  0  0  0  0  0  0  0  0  0  0  0
    0.7500    1.2990    0.0000 C   0  0  0  0  0  0  0  0  0  0  0  0
   -0.7500    1.2990    0.0000 C   0  0  0  0  0  0  0  0  0  0  0  0
   -1.7537    2.4138    0.0000 N   0  0  0  0  0  0  0  0  0  0  0  0
   -3.1240    1.8037    0.0000 C   0  0  0  0  0  0  0  0  0  0  0  0
   -4.4231    2.5537    0.0000 O   0  0  0  0  0  0  0  0  0  0  0  0
   -2.9672    0.3119    0.0000 C   0  0  0  0  0  0  0  0  0  0  0  0
   -4.0819   -0.6918    0.0000 C   0  0  0  0  0  0  0  0  0  0  0  0
   -5.5085   -0.2283    0.0000 C   0  0  0  0  0  0  0  0  0  0  0  0
   -6.7220   -1.1100    0.0000 O   0  0  0  0  0  0  0  0  0  0  0  0
   -7.9356   -0.2283    0.0000 C   0  0  0  0  0  0  0  0  0  0  0  0
   -7.4720    1.1983    0.0000 C   0  0  0  0  0  0  0  0  0  0  0  0
   -5.9720    1.1983    0.0000 C   0  0  0  0  0  0  0  0  0  0  0  0
   -1.5000    0.0000    0.0000 C   0  0  0  0  0  0  0  0  0  0  0  0
   -0.7500   -1.2990    0.0000 C   0  0  0  0  0  0  0  0  0  0  0  0
   -3.0000   -7.7942    0.0000 C   0  0  0  0  0  0  0  0  0  0  0  0
   -3.7500   -9.0933    0.0000 C   0  0  0  0  0  0  0  0  0  0  0  0
   -3.1399  -10.4636    0.0000 C   0  0  0  0  0  0  0  0  0  0  0  0
   -4.2546  -11.4673    0.0000 N   0  0  0  0  0  0  0  0  0  0  0  0
   -5.5537  -10.7173    0.0000 C   0  0  0  0  0  0  0  0  0  0  0  0
   -6.9802  -11.1808    0.0000 C   0  0  0  0  0  0  0  0  0  0  0  0
   -8.0950  -10.1771    0.0000 C   0  0  0  0  0  0  0  0  0  0  0  0
   -7.7831   -8.7099    0.0000 C   0  0  0  0  0  0  0  0  0  0  0  0
   -6.3565   -8.2464    0.0000 C   0  0  0  0  0  0  0  0  0  0  0  0
   -5.2418   -9.2501    0.0000 C   0  0  0  0  0  0  0  0  0  0  0  0
  1  2  1  0
  2  3  1  0
  3  4  1  0
  4  5  1  0
  5  6  2  0
  6  7  1  0
  7  8  2  0
  8  9  1  0
  9 10  2  0
  9 11  1  0
 11 12  2  0
 12 13  1  0
 13 14  2  0
 14 15  1  0
 15 16  1  0
 16 17  2  0
 16 18  1  0
 18 19  2  3
 19 20  1  0
 20 21  1  0
 21 22  1  0
 22 23  2  0
 23 24  1  0
 18 25  1  0
 25 26  2  0
  2 27  1  0
 27 28  1  0
 28 29  2  0
 29 30  1  0
 30 31  1  0
 31 32  2  0
 32 33  1  0
 33 34  2  0
 34 35  1  0
 35 36  2  0
 10  5  1  0
 26 11  1  0
 25 14  1  0
 24 20  2  0
 36 28  1  0
 36 31  1  0
M  END
>  <Molecule>  (343) 
CHEMBL2001751

>  <Standard Type>  (343) 
Ki

>  <Standard Relation>  (343) 
=

>  <Standard Value>  (343) 
50.12

>  <Standard Units>  (343) 
nM

>  <pChEMBL Value>  (343) 
7.3

>  <Comment>  (343) 
active

>  <Compound Key>  (343) 
SID103904754

>  <Assay>  (343) 
CHEMBL1963742

>  <Assay Description>  (343) 
PUBCHEM_BIOASSAY: Navigating the Kinome. (Class of assay: other) Panel member name: JAK3

>  <BAO Format>  (343) 
assay format

>  <Target>  (343) 
CHEMBL2148

>  <Target Pref. Name>  (343) 
Tyrosine-protein kinase JAK3

>  <Target Organism>  (343) 
Homo sapiens

>  <Target Type>  (343) 
SINGLE PROTEIN

>  <Document>  (343) 
CHEMBL1201862

>  <Source>  (343) 
PubChem BioAssays

>  <Max Phase>  (343) 
0

>  <#Ro5 Violations>  (343) 
1

>  <Molecular Weight>  (343) 
476.54

>  <Ligand Efficiency BEI>  (343) 
nan

>  <Ligand Efficiency LE>  (343) 
nan

>  <Ligand Efficiency LLE>  (343) 
nan

>  <Ligand Efficiency SEI>  (343) 
nan

>  <ALogP>  (343) 
5.26

>  <Assay Organism>  (343) 
nan

>  <Assay Tissue ChEMBL ID>  (343) 
nan

>  <Assay Tissue Name>  (343) 
nan

>  <Assay Cell Type>  (343) 
nan

>  <Assay Subcellular Fraction>  (343) 
nan

>  <Organism Tax ID>  (343) 
9606

>  <BAO Format ID>  (343) 
BAO_0000019

>  <Published Type>  (343) 
nan

>  <Published Relation>  (343) 
nan

>  <Published Value>  (343) 
nan

>  <Published Units>  (343) 
nan

>  <Canonical Smiles>  (343) 
NC(COc1cncc(c1)c2ccc3NC(=O)C(=Cc4occc4)c3c2)Cc5c[nH]c6ccccc56

>  <Data Validity Comment>  (343) 
nan

>  <Document Journal>  (343) 
nan

>  <Document Year>  (343) 
nan

>  <SRC ID>  (343) 
7

>  <UO Units>  (343) 
UO_0000065

>  <Potential Duplicate>  (343) 
False

>  <Class>  (343) 
1

$$$$

     RDKit          2D

 16 18  0  0  0  0  0  0  0  0999 V2000
   -0.0000   -5.1073    0.0000 O   0  0  0  0  0  0  0  0  0  0  0  0
   -0.0000   -3.6073    0.0000 C   0  0  0  0  0  0  0  0  0  0  0  0
    1.2135   -2.7256    0.0000 N   0  0  0  0  0  0  0  0  0  0  0  0
    0.7500   -1.2990    0.0000 C   0  0  0  0  0  0  0  0  0  0  0  0
    1.5000    0.0000    0.0000 C   0  0  0  0  0  0  0  0  0  0  0  0
    0.7500    1.2990    0.0000 C   0  0  0  0  0  0  0  0  0  0  0  0
   -0.7500    1.2990    0.0000 C   0  0  0  0  0  0  0  0  0  0  0  0
   -1.5000    0.0000    0.0000 C   0  0  0  0  0  0  0  0  0  0  0  0
   -0.7500   -1.2990    0.0000 C   0  0  0  0  0  0  0  0  0  0  0  0
   -1.2135   -2.7256    0.0000 C   0  0  0  0  0  0  0  0  0  0  0  0
   -2.6401   -3.1891    0.0000 C   0  0  0  0  0  0  0  0  0  0  0  0
   -2.9520   -4.6564    0.0000 C   0  0  0  0  0  0  0  0  0  0  0  0
   -1.9483   -5.7711    0.0000 C   0  0  0  0  0  0  0  0  0  0  0  0
   -2.6983   -7.0701    0.0000 C   0  0  0  0  0  0  0  0  0  0  0  0
   -4.1655   -6.7583    0.0000 C   0  0  0  0  0  0  0  0  0  0  0  0
   -4.3223   -5.2665    0.0000 N   0  0  0  0  0  0  0  0  0  0  0  0
  1  2  2  0
  2  3  1  0
  3  4  1  0
  4  5  2  0
  5  6  1  0
  6  7  2  0
  7  8  1  0
  8  9  2  0
  9 10  1  0
 10 11  2  3
 11 12  1  0
 12 13  2  0
 13 14  1  0
 14 15  2  0
 15 16  1  0
 10  2  1  0
  9  4  1  0
 16 12  1  0
M  END
>  <Molecule>  (344) 
CHEMBL1996176

>  <Standard Type>  (344) 
Ki

>  <Standard Relation>  (344) 
=

>  <Standard Value>  (344) 
3981.07

>  <Standard Units>  (344) 
nM

>  <pChEMBL Value>  (344) 
5.4

>  <Comment>  (344) 
active

>  <Compound Key>  (344) 
SID103905116

>  <Assay>  (344) 
CHEMBL1963742

>  <Assay Description>  (344) 
PUBCHEM_BIOASSAY: Navigating the Kinome. (Class of assay: other) Panel member name: JAK3

>  <BAO Format>  (344) 
assay format

>  <Target>  (344) 
CHEMBL2148

>  <Target Pref. Name>  (344) 
Tyrosine-protein kinase JAK3

>  <Target Organism>  (344) 
Homo sapiens

>  <Target Type>  (344) 
SINGLE PROTEIN

>  <Document>  (344) 
CHEMBL1201862

>  <Source>  (344) 
PubChem BioAssays

>  <Max Phase>  (344) 
0

>  <#Ro5 Violations>  (344) 
0

>  <Molecular Weight>  (344) 
210.24

>  <Ligand Efficiency BEI>  (344) 
nan

>  <Ligand Efficiency LE>  (344) 
nan

>  <Ligand Efficiency LLE>  (344) 
nan

>  <Ligand Efficiency SEI>  (344) 
nan

>  <ALogP>  (344) 
2.51

>  <Assay Organism>  (344) 
nan

>  <Assay Tissue ChEMBL ID>  (344) 
nan

>  <Assay Tissue Name>  (344) 
nan

>  <Assay Cell Type>  (344) 
nan

>  <Assay Subcellular Fraction>  (344) 
nan

>  <Organism Tax ID>  (344) 
9606

>  <BAO Format ID>  (344) 
BAO_0000019

>  <Published Type>  (344) 
nan

>  <Published Relation>  (344) 
nan

>  <Published Value>  (344) 
nan

>  <Published Units>  (344) 
nan

>  <Canonical Smiles>  (344) 
O=C1Nc2ccccc2C1=Cc3ccc[nH]3

>  <Data Validity Comment>  (344) 
nan

>  <Document Journal>  (344) 
nan

>  <Document Year>  (344) 
nan

>  <SRC ID>  (344) 
7

>  <UO Units>  (344) 
UO_0000065

>  <Potential Duplicate>  (344) 
False

>  <Class>  (344) 
1

$$$$

     RDKit          2D

 21 24  0  0  0  0  0  0  0  0999 V2000
   -2.6401   -3.1891    0.0000 C   0  0  0  0  0  0  0  0  0  0  0  0
   -1.2135   -2.7256    0.0000 N   0  0  0  0  0  0  0  0  0  0  0  0
   -0.0000   -3.6073    0.0000 C   0  0  0  0  0  0  0  0  0  0  0  0
    1.2135   -2.7256    0.0000 C   0  0  0  0  0  0  0  0  0  0  0  0
    2.6401   -3.1891    0.0000 C   0  0  0  0  0  0  0  0  0  0  0  0
    3.1036   -4.6157    0.0000 C   0  0  0  0  0  0  0  0  0  0  0  0
    4.6036   -4.6157    0.0000 C   0  0  0  0  0  0  0  0  0  0  0  0
    5.6073   -5.7305    0.0000 N   0  0  0  0  0  0  0  0  0  0  0  0
    7.0746   -5.4186    0.0000 C   0  0  0  0  0  0  0  0  0  0  0  0
    8.0782   -6.5333    0.0000 Br  0  0  0  0  0  0  0  0  0  0  0  0
    7.5381   -3.9920    0.0000 C   0  0  0  0  0  0  0  0  0  0  0  0
    6.5344   -2.8773    0.0000 N   0  0  0  0  0  0  0  0  0  0  0  0
    5.0672   -3.1891    0.0000 C   0  0  0  0  0  0  0  0  0  0  0  0
    3.8536   -2.3075    0.0000 N   0  0  0  0  0  0  0  0  0  0  0  0
    0.7500   -1.2990    0.0000 C   0  0  0  0  0  0  0  0  0  0  0  0
    1.5000    0.0000    0.0000 C   0  0  0  0  0  0  0  0  0  0  0  0
    0.7500    1.2990    0.0000 C   0  0  0  0  0  0  0  0  0  0  0  0
    1.5000    2.5981    0.0000 F   0  0  0  0  0  0  0  0  0  0  0  0
   -0.7500    1.2990    0.0000 C   0  0  0  0  0  0  0  0  0  0  0  0
   -1.5000    0.0000    0.0000 C   0  0  0  0  0  0  0  0  0  0  0  0
   -0.7500   -1.2990    0.0000 C   0  0  0  0  0  0  0  0  0  0  0  0
  1  2  1  0
  2  3  1  0
  3  4  2  0
  4  5  1  0
  5  6  2  0
  6  7  1  0
  7  8  2  0
  8  9  1  0
  9 10  1  0
  9 11  2  0
 11 12  1  0
 12 13  2  0
 13 14  1  0
  4 15  1  0
 15 16  2  0
 16 17  1  0
 17 18  1  0
 17 19  2  0
 19 20  1  0
 20 21  2  0
 21  2  1  0
 14  5  1  0
 13  7  1  0
 21 15  1  0
M  END
>  <Molecule>  (345) 
CHEMBL1993335

>  <Standard Type>  (345) 
Ki

>  <Standard Relation>  (345) 
=

>  <Standard Value>  (345) 
1995.26

>  <Standard Units>  (345) 
nM

>  <pChEMBL Value>  (345) 
5.7

>  <Comment>  (345) 
active

>  <Compound Key>  (345) 
SID103904862

>  <Assay>  (345) 
CHEMBL1963742

>  <Assay Description>  (345) 
PUBCHEM_BIOASSAY: Navigating the Kinome. (Class of assay: other) Panel member name: JAK3

>  <BAO Format>  (345) 
assay format

>  <Target>  (345) 
CHEMBL2148

>  <Target Pref. Name>  (345) 
Tyrosine-protein kinase JAK3

>  <Target Organism>  (345) 
Homo sapiens

>  <Target Type>  (345) 
SINGLE PROTEIN

>  <Document>  (345) 
CHEMBL1201862

>  <Source>  (345) 
PubChem BioAssays

>  <Max Phase>  (345) 
0

>  <#Ro5 Violations>  (345) 
0

>  <Molecular Weight>  (345) 
345.18

>  <Ligand Efficiency BEI>  (345) 
nan

>  <Ligand Efficiency LE>  (345) 
nan

>  <Ligand Efficiency LLE>  (345) 
nan

>  <Ligand Efficiency SEI>  (345) 
nan

>  <ALogP>  (345) 
4.02

>  <Assay Organism>  (345) 
nan

>  <Assay Tissue ChEMBL ID>  (345) 
nan

>  <Assay Tissue Name>  (345) 
nan

>  <Assay Cell Type>  (345) 
nan

>  <Assay Subcellular Fraction>  (345) 
nan

>  <Organism Tax ID>  (345) 
9606

>  <BAO Format ID>  (345) 
BAO_0000019

>  <Published Type>  (345) 
nan

>  <Published Relation>  (345) 
nan

>  <Published Value>  (345) 
nan

>  <Published Units>  (345) 
nan

>  <Canonical Smiles>  (345) 
Cn1cc(c2cc3nc(Br)cnc3[nH]2)c4cc(F)ccc14

>  <Data Validity Comment>  (345) 
nan

>  <Document Journal>  (345) 
nan

>  <Document Year>  (345) 
nan

>  <SRC ID>  (345) 
7

>  <UO Units>  (345) 
UO_0000065

>  <Potential Duplicate>  (345) 
False

>  <Class>  (345) 
1

$$$$

     RDKit          2D

 34 37  0  0  0  0  0  0  0  0999 V2000
   -6.2961   -1.6453    0.0000 C   0  0  0  0  0  0  0  0  0  0  0  0
   -5.1814   -2.6490    0.0000 C   0  0  0  0  0  0  0  0  0  0  0  0
   -3.7548   -2.1855    0.0000 C   0  0  0  0  0  0  0  0  0  0  0  0
   -2.6401   -3.1891    0.0000 C   0  0  0  0  0  0  0  0  0  0  0  0
   -1.2135   -2.7256    0.0000 N   0  0  0  0  0  0  0  0  0  0  0  0
   -0.0000   -3.6073    0.0000 C   0  0  0  0  0  0  0  0  0  0  0  0
   -0.0000   -5.1073    0.0000 N   0  0  0  0  0  0  0  0  0  0  0  0
   -1.2990   -5.8573    0.0000 C   0  0  0  0  0  0  0  0  0  0  0  0
   -2.5981   -5.1073    0.0000 O   0  0  0  0  0  0  0  0  0  0  0  0
   -1.2990   -7.3573    0.0000 C   0  0  0  0  0  0  0  0  0  0  0  0
   -2.5981   -8.1073    0.0000 C   0  0  0  0  0  0  0  0  0  0  0  0
   -2.5981   -9.6073    0.0000 C   0  0  0  0  0  0  0  0  0  0  0  0
   -1.2990  -10.3573    0.0000 C   0  0  0  0  0  0  0  0  0  0  0  0
   -0.0000   -9.6073    0.0000 C   0  0  0  0  0  0  0  0  0  0  0  0
   -0.0000   -8.1073    0.0000 C   0  0  0  0  0  0  0  0  0  0  0  0
   -1.2990  -11.8573    0.0000 C   0  0  0  0  0  0  0  0  0  0  0  0
   -1.2990  -13.3573    0.0000 N   0  0  0  0  0  0  0  0  0  0  0  0
    1.2135   -2.7256    0.0000 N   0  0  0  0  0  0  0  0  0  0  0  0
    0.7500   -1.2990    0.0000 C   0  0  0  0  0  0  0  0  0  0  0  0
    1.5000    0.0000    0.0000 C   0  0  0  0  0  0  0  0  0  0  0  0
    0.7500    1.2990    0.0000 C   0  0  0  0  0  0  0  0  0  0  0  0
   -0.7500    1.2990    0.0000 C   0  0  0  0  0  0  0  0  0  0  0  0
   -1.5000    0.0000    0.0000 C   0  0  0  0  0  0  0  0  0  0  0  0
   -0.7500   -1.2990    0.0000 C   0  0  0  0  0  0  0  0  0  0  0  0
    1.5000    2.5981    0.0000 N   0  0  0  0  0  0  0  0  0  0  0  0
    3.0000    2.5981    0.0000 C   0  0  0  0  0  0  0  0  0  0  0  0
    0.7500    3.8971    0.0000 C   0  0  0  0  0  0  0  0  0  0  0  0
   -0.7500    3.8971    0.0000 O   0  0  0  0  0  0  0  0  0  0  0  0
    1.5000    5.1962    0.0000 C   0  0  0  0  0  0  0  0  0  0  0  0
    3.0000    5.1962    0.0000 C   0  0  0  0  0  0  0  0  0  0  0  0
    3.7500    6.4952    0.0000 C   0  0  0  0  0  0  0  0  0  0  0  0
    3.0000    7.7942    0.0000 C   0  0  0  0  0  0  0  0  0  0  0  0
    1.5000    7.7942    0.0000 C   0  0  0  0  0  0  0  0  0  0  0  0
    0.7500    6.4952    0.0000 C   0  0  0  0  0  0  0  0  0  0  0  0
  1  2  1  0
  2  3  1  0
  3  4  1  0
  4  5  1  0
  5  6  1  0
  6  7  1  0
  7  8  1  0
  8  9  2  0
  8 10  1  0
 10 11  2  0
 11 12  1  0
 12 13  2  0
 13 14  1  0
 14 15  2  0
 13 16  1  0
 16 17  3  0
  6 18  2  0
 18 19  1  0
 19 20  2  0
 20 21  1  0
 21 22  2  0
 22 23  1  0
 23 24  2  0
 21 25  1  0
 25 26  1  0
 25 27  1  0
 27 28  2  0
 27 29  1  0
 29 30  1  0
 30 31  1  0
 31 32  1  0
 32 33  1  0
 33 34  1  0
 24  5  1  0
 15 10  1  0
 24 19  1  0
 34 29  1  0
M  END
>  <Molecule>  (346) 
CHEMBL484390

>  <Standard Type>  (346) 
Ki

>  <Standard Relation>  (346) 
>

>  <Standard Value>  (346) 
1584.89

>  <Standard Units>  (346) 
nM

>  <pChEMBL Value>  (346) 
nan

>  <Comment>  (346) 
inactive

>  <Compound Key>  (346) 
SID103905078

>  <Assay>  (346) 
CHEMBL1963742

>  <Assay Description>  (346) 
PUBCHEM_BIOASSAY: Navigating the Kinome. (Class of assay: other) Panel member name: JAK3

>  <BAO Format>  (346) 
assay format

>  <Target>  (346) 
CHEMBL2148

>  <Target Pref. Name>  (346) 
Tyrosine-protein kinase JAK3

>  <Target Organism>  (346) 
Homo sapiens

>  <Target Type>  (346) 
SINGLE PROTEIN

>  <Document>  (346) 
CHEMBL1201862

>  <Source>  (346) 
PubChem BioAssays

>  <Max Phase>  (346) 
0

>  <#Ro5 Violations>  (346) 
1

>  <Molecular Weight>  (346) 
457.58

>  <Ligand Efficiency BEI>  (346) 
nan

>  <Ligand Efficiency LE>  (346) 
nan

>  <Ligand Efficiency LLE>  (346) 
nan

>  <Ligand Efficiency SEI>  (346) 
nan

>  <ALogP>  (346) 
5.5

>  <Assay Organism>  (346) 
nan

>  <Assay Tissue ChEMBL ID>  (346) 
nan

>  <Assay Tissue Name>  (346) 
nan

>  <Assay Cell Type>  (346) 
nan

>  <Assay Subcellular Fraction>  (346) 
nan

>  <Organism Tax ID>  (346) 
9606

>  <BAO Format ID>  (346) 
BAO_0000019

>  <Published Type>  (346) 
nan

>  <Published Relation>  (346) 
nan

>  <Published Value>  (346) 
nan

>  <Published Units>  (346) 
nan

>  <Canonical Smiles>  (346) 
CCCCn1c(NC(=O)c2ccc(cc2)C#N)nc3cc(ccc13)N(C)C(=O)C4CCCCC4

>  <Data Validity Comment>  (346) 
nan

>  <Document Journal>  (346) 
nan

>  <Document Year>  (346) 
nan

>  <SRC ID>  (346) 
7

>  <UO Units>  (346) 
UO_0000065

>  <Potential Duplicate>  (346) 
False

>  <Class>  (346) 
0

$$$$

     RDKit          2D

 40 45  0  0  0  0  0  0  0  0999 V2000
   -0.7500  -14.2894    0.0000 C   0  0  0  0  0  0  0  0  0  0  0  0
   -1.5000  -12.9904    0.0000 C   0  0  0  0  0  0  0  0  0  0  0  0
   -0.7500  -11.6913    0.0000 C   0  0  0  0  0  0  0  0  0  0  0  0
   -1.5000  -10.3923    0.0000 C   0  0  0  0  0  0  0  0  0  0  0  0
   -3.0000  -10.3923    0.0000 O   0  0  0  0  0  0  0  0  0  0  0  0
   -0.7500   -9.0933    0.0000 N   0  0  0  0  0  0  0  0  0  0  0  0
   -1.5000   -7.7942    0.0000 C   0  0  0  0  0  0  0  0  0  0  0  0
   -3.0000   -7.7942    0.0000 C   0  0  0  0  0  0  0  0  0  0  0  0
   -3.7500   -6.4952    0.0000 C   0  0  0  0  0  0  0  0  0  0  0  0
   -3.0000   -5.1962    0.0000 C   0  0  0  0  0  0  0  0  0  0  0  0
   -1.5000   -5.1962    0.0000 C   0  0  0  0  0  0  0  0  0  0  0  0
   -0.7500   -6.4952    0.0000 C   0  0  0  0  0  0  0  0  0  0  0  0
   -0.7500   -3.8971    0.0000 C   0  0  0  0  0  0  0  0  0  0  0  0
    0.7500   -3.8971    0.0000 N   0  0  0  0  0  0  0  0  0  0  0  0
    1.5000   -2.5981    0.0000 C   0  0  0  0  0  0  0  0  0  0  0  0
    3.0000   -2.5981    0.0000 N   0  0  0  0  0  0  0  0  0  0  0  0
    3.7500   -3.8971    0.0000 C   0  0  0  0  0  0  0  0  0  0  0  0
    3.0000   -5.1962    0.0000 C   0  0  0  0  0  0  0  0  0  0  0  0
    3.7500   -6.4952    0.0000 C   0  0  0  0  0  0  0  0  0  0  0  0
    5.2500   -6.4952    0.0000 C   0  0  0  0  0  0  0  0  0  0  0  0
    6.2537   -7.6099    0.0000 N   0  0  0  0  0  0  0  0  0  0  0  0
    7.6240   -6.9998    0.0000 N   0  0  0  0  0  0  0  0  0  0  0  0
    7.4672   -5.5080    0.0000 C   0  0  0  0  0  0  0  0  0  0  0  0
    6.0000   -5.1962    0.0000 C   0  0  0  0  0  0  0  0  0  0  0  0
    5.2500   -3.8971    0.0000 C   0  0  0  0  0  0  0  0  0  0  0  0
    0.7500   -1.2990    0.0000 C   0  0  0  0  0  0  0  0  0  0  0  0
    1.5000    0.0000    0.0000 C   0  0  0  0  0  0  0  0  0  0  0  0
    0.7500    1.2990    0.0000 C   0  0  0  0  0  0  0  0  0  0  0  0
    1.5000    2.5981    0.0000 O   0  0  0  0  0  0  0  0  0  0  0  0
    3.0000    2.5981    0.0000 C   0  0  0  0  0  0  0  0  0  0  0  0
    3.7500    3.8971    0.0000 C   0  0  0  0  0  0  0  0  0  0  0  0
    5.2500    3.8971    0.0000 N   0  0  0  0  0  0  0  0  0  0  0  0
    6.1317    5.1106    0.0000 C   0  0  0  0  0  0  0  0  0  0  0  0
    7.5583    4.6471    0.0000 C   0  0  0  0  0  0  0  0  0  0  0  0
    7.5583    3.1471    0.0000 C   0  0  0  0  0  0  0  0  0  0  0  0
    6.1317    2.6836    0.0000 C   0  0  0  0  0  0  0  0  0  0  0  0
   -0.7500    1.2990    0.0000 C   0  0  0  0  0  0  0  0  0  0  0  0
   -1.5000    0.0000    0.0000 C   0  0  0  0  0  0  0  0  0  0  0  0
   -0.7500   -1.2990    0.0000 C   0  0  0  0  0  0  0  0  0  0  0  0
   -1.5000   -2.5981    0.0000 N   0  0  0  0  0  0  0  0  0  0  0  0
  1  2  1  0
  2  3  1  0
  3  4  1  0
  4  5  2  0
  4  6  1  0
  6  7  1  0
  7  8  2  0
  8  9  1  0
  9 10  2  0
 10 11  1  0
 11 12  2  0
 11 13  1  0
 13 14  2  0
 14 15  1  0
 15 16  1  0
 16 17  1  0
 17 18  2  0
 18 19  1  0
 19 20  2  0
 20 21  1  0
 21 22  1  0
 22 23  2  0
 23 24  1  0
 24 25  2  0
 15 26  2  0
 26 27  1  0
 27 28  2  0
 28 29  1  0
 29 30  1  0
 30 31  1  0
 31 32  1  0
 32 33  1  0
 33 34  1  0
 34 35  1  0
 35 36  1  0
 28 37  1  0
 37 38  2  0
 38 39  1  0
 39 40  2  0
 12  7  1  0
 40 13  1  0
 25 17  1  0
 24 20  1  0
 39 26  1  0
 36 32  1  0
M  END
>  <Molecule>  (347) 
CHEMBL1968705

>  <Standard Type>  (347) 
Ki

>  <Standard Relation>  (347) 
>

>  <Standard Value>  (347) 
5011.87

>  <Standard Units>  (347) 
nM

>  <pChEMBL Value>  (347) 
nan

>  <Comment>  (347) 
inactive

>  <Compound Key>  (347) 
SID103905541

>  <Assay>  (347) 
CHEMBL1963742

>  <Assay Description>  (347) 
PUBCHEM_BIOASSAY: Navigating the Kinome. (Class of assay: other) Panel member name: JAK3

>  <BAO Format>  (347) 
assay format

>  <Target>  (347) 
CHEMBL2148

>  <Target Pref. Name>  (347) 
Tyrosine-protein kinase JAK3

>  <Target Organism>  (347) 
Homo sapiens

>  <Target Type>  (347) 
SINGLE PROTEIN

>  <Document>  (347) 
CHEMBL1201862

>  <Source>  (347) 
PubChem BioAssays

>  <Max Phase>  (347) 
0

>  <#Ro5 Violations>  (347) 
2

>  <Molecular Weight>  (347) 
535.65

>  <Ligand Efficiency BEI>  (347) 
nan

>  <Ligand Efficiency LE>  (347) 
nan

>  <Ligand Efficiency LLE>  (347) 
nan

>  <Ligand Efficiency SEI>  (347) 
nan

>  <ALogP>  (347) 
6.13

>  <Assay Organism>  (347) 
nan

>  <Assay Tissue ChEMBL ID>  (347) 
nan

>  <Assay Tissue Name>  (347) 
nan

>  <Assay Cell Type>  (347) 
nan

>  <Assay Subcellular Fraction>  (347) 
nan

>  <Organism Tax ID>  (347) 
9606

>  <BAO Format ID>  (347) 
BAO_0000019

>  <Published Type>  (347) 
nan

>  <Published Relation>  (347) 
nan

>  <Published Value>  (347) 
nan

>  <Published Units>  (347) 
nan

>  <Canonical Smiles>  (347) 
CCCC(=O)Nc1cccc(c1)c2nc(Nc3ccc4[nH]ncc4c3)c5cc(OCCN6CCCC6)ccc5n2

>  <Data Validity Comment>  (347) 
nan

>  <Document Journal>  (347) 
nan

>  <Document Year>  (347) 
nan

>  <SRC ID>  (347) 
7

>  <UO Units>  (347) 
UO_0000065

>  <Potential Duplicate>  (347) 
False

>  <Class>  (347) 
0

$$$$

     RDKit          2D

 24 27  0  0  0  0  0  0  0  0999 V2000
    3.7500   -1.2990    0.0000 C   0  0  0  0  0  0  0  0  0  0  0  0
    3.0000   -2.5981    0.0000 O   0  0  0  0  0  0  0  0  0  0  0  0
    1.5000   -2.5981    0.0000 C   0  0  0  0  0  0  0  0  0  0  0  0
    0.7500   -1.2990    0.0000 C   0  0  0  0  0  0  0  0  0  0  0  0
    1.5000    0.0000    0.0000 C   0  0  0  0  0  0  0  0  0  0  0  0
    3.0000    0.0000    0.0000 O   0  0  0  0  0  0  0  0  0  0  0  0
    0.7500    1.2990    0.0000 C   0  0  0  0  0  0  0  0  0  0  0  0
   -0.7500    1.2990    0.0000 C   0  0  0  0  0  0  0  0  0  0  0  0
   -1.5000    2.5981    0.0000 C   0  0  0  0  0  0  0  0  0  0  0  0
   -1.5000    0.0000    0.0000 O   0  0  0  0  0  0  0  0  0  0  0  0
   -0.7500   -1.2990    0.0000 C   0  0  0  0  0  0  0  0  0  0  0  0
   -1.5000   -2.5981    0.0000 C   0  0  0  0  0  0  0  0  0  0  0  0
   -0.7500   -3.8971    0.0000 C   0  0  0  0  0  0  0  0  0  0  0  0
   -1.5000   -5.1962    0.0000 O   0  0  0  0  0  0  0  0  0  0  0  0
    0.7500   -3.8971    0.0000 C   0  0  0  0  0  0  0  0  0  0  0  0
    1.5000   -5.1962    0.0000 C   0  0  0  0  0  0  0  0  0  0  0  0
    0.8899   -6.5665    0.0000 N   0  0  0  0  0  0  0  0  0  0  0  0
    2.0046   -7.5702    0.0000 C   0  0  0  0  0  0  0  0  0  0  0  0
    2.0046   -9.0702    0.0000 C   0  0  0  0  0  0  0  0  0  0  0  0
    3.3037   -9.8202    0.0000 C   0  0  0  0  0  0  0  0  0  0  0  0
    4.6027   -9.0702    0.0000 C   0  0  0  0  0  0  0  0  0  0  0  0
    4.6027   -7.5702    0.0000 C   0  0  0  0  0  0  0  0  0  0  0  0
    3.3037   -6.8202    0.0000 C   0  0  0  0  0  0  0  0  0  0  0  0
    2.9918   -5.3529    0.0000 N   0  0  0  0  0  0  0  0  0  0  0  0
  1  2  1  0
  2  3  1  0
  3  4  2  0
  4  5  1  0
  5  6  2  0
  5  7  1  0
  7  8  2  0
  8  9  1  0
  8 10  1  0
 10 11  1  0
 11 12  2  0
 12 13  1  0
 13 14  1  0
 13 15  2  0
 15 16  1  0
 16 17  2  0
 17 18  1  0
 18 19  2  0
 19 20  1  0
 20 21  2  0
 21 22  1  0
 22 23  2  0
 23 24  1  0
 15  3  1  0
 11  4  1  0
 24 16  1  0
 23 18  1  0
M  END
>  <Molecule>  (348) 
CHEMBL1972355

>  <Standard Type>  (348) 
Ki

>  <Standard Relation>  (348) 
=

>  <Standard Value>  (348) 
3981.07

>  <Standard Units>  (348) 
nM

>  <pChEMBL Value>  (348) 
5.4

>  <Comment>  (348) 
active

>  <Compound Key>  (348) 
SID103905604

>  <Assay>  (348) 
CHEMBL1963742

>  <Assay Description>  (348) 
PUBCHEM_BIOASSAY: Navigating the Kinome. (Class of assay: other) Panel member name: JAK3

>  <BAO Format>  (348) 
assay format

>  <Target>  (348) 
CHEMBL2148

>  <Target Pref. Name>  (348) 
Tyrosine-protein kinase JAK3

>  <Target Organism>  (348) 
Homo sapiens

>  <Target Type>  (348) 
SINGLE PROTEIN

>  <Document>  (348) 
CHEMBL1201862

>  <Source>  (348) 
PubChem BioAssays

>  <Max Phase>  (348) 
0

>  <#Ro5 Violations>  (348) 
0

>  <Molecular Weight>  (348) 
322.32

>  <Ligand Efficiency BEI>  (348) 
nan

>  <Ligand Efficiency LE>  (348) 
nan

>  <Ligand Efficiency LLE>  (348) 
nan

>  <Ligand Efficiency SEI>  (348) 
nan

>  <ALogP>  (348) 
3.36

>  <Assay Organism>  (348) 
nan

>  <Assay Tissue ChEMBL ID>  (348) 
nan

>  <Assay Tissue Name>  (348) 
nan

>  <Assay Cell Type>  (348) 
nan

>  <Assay Subcellular Fraction>  (348) 
nan

>  <Organism Tax ID>  (348) 
9606

>  <BAO Format ID>  (348) 
BAO_0000019

>  <Published Type>  (348) 
nan

>  <Published Relation>  (348) 
nan

>  <Published Value>  (348) 
nan

>  <Published Units>  (348) 
nan

>  <Canonical Smiles>  (348) 
COc1c2C(=O)C=C(C)Oc2cc(O)c1c3nc4ccccc4[nH]3

>  <Data Validity Comment>  (348) 
nan

>  <Document Journal>  (348) 
nan

>  <Document Year>  (348) 
nan

>  <SRC ID>  (348) 
7

>  <UO Units>  (348) 
UO_0000065

>  <Potential Duplicate>  (348) 
False

>  <Class>  (348) 
1

$$$$

     RDKit          2D

 23 24  0  0  0  0  0  0  0  0999 V2000
    3.7500   -1.2990    0.0000 C   0  0  0  0  0  0  0  0  0  0  0  0
    3.0000    0.0000    0.0000 O   0  0  0  0  0  0  0  0  0  0  0  0
    1.5000    0.0000    0.0000 C   0  0  0  0  0  0  0  0  0  0  0  0
    0.7500   -1.2990    0.0000 C   0  0  0  0  0  0  0  0  0  0  0  0
   -0.7500   -1.2990    0.0000 C   0  0  0  0  0  0  0  0  0  0  0  0
   -1.5000   -2.5981    0.0000 C   0  0  0  0  0  0  0  0  0  0  0  0
   -3.0000   -2.5981    0.0000 O   0  0  0  0  0  0  0  0  0  0  0  0
   -1.5000    0.0000    0.0000 C   0  0  0  0  0  0  0  0  0  0  0  0
   -3.0000    0.0000    0.0000 Cl  0  0  0  0  0  0  0  0  0  0  0  0
   -0.7500    1.2990    0.0000 C   0  0  0  0  0  0  0  0  0  0  0  0
    0.7500    1.2990    0.0000 C   0  0  0  0  0  0  0  0  0  0  0  0
    1.5000    2.5981    0.0000 N   0  0  0  0  0  0  0  0  0  0  0  0
    3.0000    2.5981    0.0000 C   0  0  0  0  0  0  0  0  0  0  0  0
    3.7500    1.2990    0.0000 O   0  0  0  0  0  0  0  0  0  0  0  0
    3.7500    3.8971    0.0000 N   0  0  0  0  0  0  0  0  0  0  0  0
    5.2500    3.8971    0.0000 C   0  0  0  0  0  0  0  0  0  0  0  0
    6.0000    2.5981    0.0000 C   0  0  0  0  0  0  0  0  0  0  0  0
    7.5000    2.5981    0.0000 N   0  0  0  0  0  0  0  0  0  0  0  0
    8.2500    3.8971    0.0000 C   0  0  0  0  0  0  0  0  0  0  0  0
    7.5000    5.1962    0.0000 C   0  0  0  0  0  0  0  0  0  0  0  0
    6.0000    5.1962    0.0000 N   0  0  0  0  0  0  0  0  0  0  0  0
    9.7500    3.8971    0.0000 C   0  0  0  0  0  0  0  0  0  0  0  0
   11.2500    3.8971    0.0000 N   0  0  0  0  0  0  0  0  0  0  0  0
  1  2  1  0
  2  3  1  0
  3  4  2  0
  4  5  1  0
  5  6  1  0
  6  7  2  0
  5  8  2  0
  8  9  1  0
  8 10  1  0
 10 11  2  0
 11 12  1  0
 12 13  1  0
 13 14  2  0
 13 15  1  0
 15 16  1  0
 16 17  2  0
 17 18  1  0
 18 19  2  0
 19 20  1  0
 20 21  2  0
 19 22  1  0
 22 23  3  0
 11  3  1  0
 21 16  1  0
M  END
>  <Molecule>  (349) 
CHEMBL207995

>  <Standard Type>  (349) 
Ki

>  <Standard Relation>  (349) 
>

>  <Standard Value>  (349) 
1584.89

>  <Standard Units>  (349) 
nM

>  <pChEMBL Value>  (349) 
nan

>  <Comment>  (349) 
inactive

>  <Compound Key>  (349) 
SID103904885

>  <Assay>  (349) 
CHEMBL1963742

>  <Assay Description>  (349) 
PUBCHEM_BIOASSAY: Navigating the Kinome. (Class of assay: other) Panel member name: JAK3

>  <BAO Format>  (349) 
assay format

>  <Target>  (349) 
CHEMBL2148

>  <Target Pref. Name>  (349) 
Tyrosine-protein kinase JAK3

>  <Target Organism>  (349) 
Homo sapiens

>  <Target Type>  (349) 
SINGLE PROTEIN

>  <Document>  (349) 
CHEMBL1201862

>  <Source>  (349) 
PubChem BioAssays

>  <Max Phase>  (349) 
0

>  <#Ro5 Violations>  (349) 
0

>  <Molecular Weight>  (349) 
331.72

>  <Ligand Efficiency BEI>  (349) 
nan

>  <Ligand Efficiency LE>  (349) 
nan

>  <Ligand Efficiency LLE>  (349) 
nan

>  <Ligand Efficiency SEI>  (349) 
nan

>  <ALogP>  (349) 
2.47

>  <Assay Organism>  (349) 
nan

>  <Assay Tissue ChEMBL ID>  (349) 
nan

>  <Assay Tissue Name>  (349) 
nan

>  <Assay Cell Type>  (349) 
nan

>  <Assay Subcellular Fraction>  (349) 
nan

>  <Organism Tax ID>  (349) 
9606

>  <BAO Format ID>  (349) 
BAO_0000019

>  <Published Type>  (349) 
nan

>  <Published Relation>  (349) 
nan

>  <Published Value>  (349) 
nan

>  <Published Units>  (349) 
nan

>  <Canonical Smiles>  (349) 
COc1cc(C=O)c(Cl)cc1NC(=O)Nc2cnc(cn2)C#N

>  <Data Validity Comment>  (349) 
nan

>  <Document Journal>  (349) 
nan

>  <Document Year>  (349) 
nan

>  <SRC ID>  (349) 
7

>  <UO Units>  (349) 
UO_0000065

>  <Potential Duplicate>  (349) 
False

>  <Class>  (349) 
0

$$$$

     RDKit          2D

 35 39  0  0  0  0  0  0  0  0999 V2000
    6.0000  -10.3923    0.0000 C   0  0  0  0  0  0  0  0  0  0  0  0
    5.2500   -9.0933    0.0000 N   0  0  0  0  0  0  0  0  0  0  0  0
    3.7500   -9.0933    0.0000 C   0  0  0  0  0  0  0  0  0  0  0  0
    3.0000   -7.7942    0.0000 C   0  0  0  0  0  0  0  0  0  0  0  0
    3.7500   -6.4952    0.0000 N   0  0  0  0  0  0  0  0  0  0  0  0
    5.2500   -6.4952    0.0000 C   0  0  0  0  0  0  0  0  0  0  0  0
    6.0000   -7.7942    0.0000 C   0  0  0  0  0  0  0  0  0  0  0  0
    3.0000   -5.1962    0.0000 C   0  0  0  0  0  0  0  0  0  0  0  0
    3.7500   -3.8971    0.0000 C   0  0  0  0  0  0  0  0  0  0  0  0
    3.0000   -2.5981    0.0000 C   0  0  0  0  0  0  0  0  0  0  0  0
    1.5000   -2.5981    0.0000 C   0  0  0  0  0  0  0  0  0  0  0  0
    0.7500   -3.8971    0.0000 C   0  0  0  0  0  0  0  0  0  0  0  0
    1.5000   -5.1962    0.0000 N   0  0  0  0  0  0  0  0  0  0  0  0
    0.7500   -1.2990    0.0000 C   0  0  0  0  0  0  0  0  0  0  0  0
    1.5000    0.0000    0.0000 C   0  0  0  0  0  0  0  0  0  0  0  0
    0.7500    1.2990    0.0000 N   0  0  0  0  0  0  0  0  0  0  0  0
   -0.7500    1.2990    0.0000 C   0  0  0  0  0  0  0  0  0  0  0  0
   -1.5000    2.5981    0.0000 N   0  0  0  0  0  0  0  0  0  0  0  0
   -3.0000    2.5981    0.0000 C   0  0  0  0  0  0  0  0  0  0  0  0
   -3.7500    1.2990    0.0000 C   0  0  0  0  0  0  0  0  0  0  0  0
   -3.0000    0.0000    0.0000 N   0  0  0  0  0  0  0  0  0  0  0  0
   -3.7500   -1.2990    0.0000 C   0  0  0  0  0  0  0  0  0  0  0  0
   -5.2500   -1.2990    0.0000 C   0  0  0  0  0  0  0  0  0  0  0  0
   -6.0000    0.0000    0.0000 C   0  0  0  0  0  0  0  0  0  0  0  0
   -7.5000    0.0000    0.0000 C   0  0  0  0  0  0  0  0  0  0  0  0
   -8.2500    1.2990    0.0000 Cl  0  0  0  0  0  0  0  0  0  0  0  0
   -8.2500   -1.2990    0.0000 C   0  0  0  0  0  0  0  0  0  0  0  0
   -7.5000   -2.5981    0.0000 C   0  0  0  0  0  0  0  0  0  0  0  0
   -6.0000   -2.5981    0.0000 C   0  0  0  0  0  0  0  0  0  0  0  0
   -5.2500   -3.8971    0.0000 C   0  0  0  0  0  0  0  0  0  0  0  0
   -4.5000   -5.1962    0.0000 F   0  0  0  0  0  0  0  0  0  0  0  0
   -6.5490   -4.6471    0.0000 F   0  0  0  0  0  0  0  0  0  0  0  0
   -3.9510   -3.1471    0.0000 F   0  0  0  0  0  0  0  0  0  0  0  0
   -1.5000    0.0000    0.0000 C   0  0  0  0  0  0  0  0  0  0  0  0
   -0.7500   -1.2990    0.0000 C   0  0  0  0  0  0  0  0  0  0  0  0
  1  2  1  0
  2  3  1  0
  3  4  1  0
  4  5  1  0
  5  6  1  0
  6  7  1  0
  5  8  1  0
  8  9  2  0
  9 10  1  0
 10 11  2  0
 11 12  1  0
 12 13  2  0
 11 14  1  0
 14 15  2  0
 15 16  1  0
 16 17  2  0
 17 18  1  0
 18 19  1  0
 19 20  1  0
 20 21  1  0
 21 22  1  0
 22 23  1  0
 23 24  2  0
 24 25  1  0
 25 26  1  0
 25 27  2  0
 27 28  1  0
 28 29  2  0
 29 30  1  0
 30 31  1  0
 30 32  1  0
 30 33  1  0
 21 34  1  0
 34 35  2  0
  7  2  1  0
 13  8  1  0
 35 14  1  0
 34 17  1  0
 29 23  1  0
M  END
>  <Molecule>  (350) 
CHEMBL1164180

>  <Standard Type>  (350) 
Ki

>  <Standard Relation>  (350) 
=

>  <Standard Value>  (350) 
501.19

>  <Standard Units>  (350) 
nM

>  <pChEMBL Value>  (350) 
6.3

>  <Comment>  (350) 
active

>  <Compound Key>  (350) 
SID103905574

>  <Assay>  (350) 
CHEMBL1963742

>  <Assay Description>  (350) 
PUBCHEM_BIOASSAY: Navigating the Kinome. (Class of assay: other) Panel member name: JAK3

>  <BAO Format>  (350) 
assay format

>  <Target>  (350) 
CHEMBL2148

>  <Target Pref. Name>  (350) 
Tyrosine-protein kinase JAK3

>  <Target Organism>  (350) 
Homo sapiens

>  <Target Type>  (350) 
SINGLE PROTEIN

>  <Document>  (350) 
CHEMBL1201862

>  <Source>  (350) 
PubChem BioAssays

>  <Max Phase>  (350) 
0

>  <#Ro5 Violations>  (350) 
1

>  <Molecular Weight>  (350) 
502.97

>  <Ligand Efficiency BEI>  (350) 
nan

>  <Ligand Efficiency LE>  (350) 
nan

>  <Ligand Efficiency LLE>  (350) 
nan

>  <Ligand Efficiency SEI>  (350) 
nan

>  <ALogP>  (350) 
5.0

>  <Assay Organism>  (350) 
nan

>  <Assay Tissue ChEMBL ID>  (350) 
nan

>  <Assay Tissue Name>  (350) 
nan

>  <Assay Cell Type>  (350) 
nan

>  <Assay Subcellular Fraction>  (350) 
nan

>  <Organism Tax ID>  (350) 
9606

>  <BAO Format ID>  (350) 
BAO_0000019

>  <Published Type>  (350) 
nan

>  <Published Relation>  (350) 
nan

>  <Published Value>  (350) 
nan

>  <Published Units>  (350) 
nan

>  <Canonical Smiles>  (350) 
CN1CCN(CC1)c2ccc(cn2)c3cnc4NCCN(Cc5cc(Cl)ccc5C(F)(F)F)c4c3

>  <Data Validity Comment>  (350) 
nan

>  <Document Journal>  (350) 
nan

>  <Document Year>  (350) 
nan

>  <SRC ID>  (350) 
7

>  <UO Units>  (350) 
UO_0000065

>  <Potential Duplicate>  (350) 
False

>  <Class>  (350) 
1

$$$$

     RDKit          2D

 26 29  0  0  0  0  0  0  0  0999 V2000
   -7.5900    4.7638    0.0000 C   0  0  0  0  0  0  0  0  0  0  0  0
   -7.9018    3.2966    0.0000 N   0  0  0  0  0  0  0  0  0  0  0  0
   -9.3284    2.8330    0.0000 C   0  0  0  0  0  0  0  0  0  0  0  0
   -6.7871    2.2929    0.0000 C   0  0  0  0  0  0  0  0  0  0  0  0
   -5.3605    2.7564    0.0000 C   0  0  0  0  0  0  0  0  0  0  0  0
   -4.2458    1.7527    0.0000 C   0  0  0  0  0  0  0  0  0  0  0  0
   -4.5577    0.2855    0.0000 C   0  0  0  0  0  0  0  0  0  0  0  0
   -5.9843   -0.1781    0.0000 C   0  0  0  0  0  0  0  0  0  0  0  0
   -7.0990    0.8256    0.0000 C   0  0  0  0  0  0  0  0  0  0  0  0
   -6.2961   -1.6453    0.0000 N   0  0  0  0  0  0  0  0  0  0  0  0
   -5.1814   -2.6490    0.0000 C   0  0  0  0  0  0  0  0  0  0  0  0
   -5.4933   -4.1162    0.0000 N   0  0  0  0  0  0  0  0  0  0  0  0
   -4.3786   -5.1199    0.0000 C   0  0  0  0  0  0  0  0  0  0  0  0
   -4.6904   -6.5871    0.0000 Cl  0  0  0  0  0  0  0  0  0  0  0  0
   -2.9520   -4.6564    0.0000 C   0  0  0  0  0  0  0  0  0  0  0  0
   -2.6401   -3.1891    0.0000 C   0  0  0  0  0  0  0  0  0  0  0  0
   -3.7548   -2.1855    0.0000 N   0  0  0  0  0  0  0  0  0  0  0  0
   -1.2135   -2.7256    0.0000 C   0  0  0  0  0  0  0  0  0  0  0  0
    0.0000   -3.6073    0.0000 C   0  0  0  0  0  0  0  0  0  0  0  0
    1.2135   -2.7256    0.0000 N   0  0  0  0  0  0  0  0  0  0  0  0
    0.7500   -1.2990    0.0000 C   0  0  0  0  0  0  0  0  0  0  0  0
    1.5000    0.0000    0.0000 N   0  0  0  0  0  0  0  0  0  0  0  0
    0.7500    1.2990    0.0000 C   0  0  0  0  0  0  0  0  0  0  0  0
   -0.7500    1.2990    0.0000 C   0  0  0  0  0  0  0  0  0  0  0  0
   -1.5000    0.0000    0.0000 C   0  0  0  0  0  0  0  0  0  0  0  0
   -0.7500   -1.2990    0.0000 C   0  0  0  0  0  0  0  0  0  0  0  0
  1  2  1  0
  2  3  1  0
  2  4  1  0
  4  5  1  0
  5  6  1  0
  6  7  1  0
  7  8  1  0
  8  9  1  0
  8 10  1  0
 10 11  1  0
 11 12  2  0
 12 13  1  0
 13 14  1  0
 13 15  2  0
 15 16  1  0
 16 17  2  0
 16 18  1  0
 18 19  2  0
 19 20  1  0
 20 21  1  0
 21 22  2  0
 22 23  1  0
 23 24  2  0
 24 25  1  0
 25 26  2  0
  9  4  1  0
 17 11  1  0
 26 18  1  0
 26 21  1  0
M  END
>  <Molecule>  (351) 
CHEMBL1965702

>  <Standard Type>  (351) 
Ki

>  <Standard Relation>  (351) 
=

>  <Standard Value>  (351) 
1995.26

>  <Standard Units>  (351) 
nM

>  <pChEMBL Value>  (351) 
5.7

>  <Comment>  (351) 
active

>  <Compound Key>  (351) 
SID103904223

>  <Assay>  (351) 
CHEMBL1963742

>  <Assay Description>  (351) 
PUBCHEM_BIOASSAY: Navigating the Kinome. (Class of assay: other) Panel member name: JAK3

>  <BAO Format>  (351) 
assay format

>  <Target>  (351) 
CHEMBL2148

>  <Target Pref. Name>  (351) 
Tyrosine-protein kinase JAK3

>  <Target Organism>  (351) 
Homo sapiens

>  <Target Type>  (351) 
SINGLE PROTEIN

>  <Document>  (351) 
CHEMBL1201862

>  <Source>  (351) 
PubChem BioAssays

>  <Max Phase>  (351) 
0

>  <#Ro5 Violations>  (351) 
0

>  <Molecular Weight>  (351) 
370.89

>  <Ligand Efficiency BEI>  (351) 
nan

>  <Ligand Efficiency LE>  (351) 
nan

>  <Ligand Efficiency LLE>  (351) 
nan

>  <Ligand Efficiency SEI>  (351) 
nan

>  <ALogP>  (351) 
3.96

>  <Assay Organism>  (351) 
nan

>  <Assay Tissue ChEMBL ID>  (351) 
nan

>  <Assay Tissue Name>  (351) 
nan

>  <Assay Cell Type>  (351) 
nan

>  <Assay Subcellular Fraction>  (351) 
nan

>  <Organism Tax ID>  (351) 
9606

>  <BAO Format ID>  (351) 
BAO_0000019

>  <Published Type>  (351) 
nan

>  <Published Relation>  (351) 
nan

>  <Published Value>  (351) 
nan

>  <Published Units>  (351) 
nan

>  <Canonical Smiles>  (351) 
CN(C)C1CCCC(C1)Nc2nc(Cl)cc(n2)c3c[nH]c4ncccc34

>  <Data Validity Comment>  (351) 
nan

>  <Document Journal>  (351) 
nan

>  <Document Year>  (351) 
nan

>  <SRC ID>  (351) 
7

>  <UO Units>  (351) 
UO_0000065

>  <Potential Duplicate>  (351) 
False

>  <Class>  (351) 
1

$$$$

     RDKit          2D

 25 27  0  0  0  0  0  0  0  0999 V2000
    3.0000    0.0000    0.0000 F   0  0  0  0  0  0  0  0  0  0  0  0
    1.5000    0.0000    0.0000 C   0  0  0  0  0  0  0  0  0  0  0  0
    0.7500   -1.2990    0.0000 C   0  0  0  0  0  0  0  0  0  0  0  0
   -0.7500   -1.2990    0.0000 C   0  0  0  0  0  0  0  0  0  0  0  0
   -1.5000    0.0000    0.0000 C   0  0  0  0  0  0  0  0  0  0  0  0
   -0.7500    1.2990    0.0000 C   0  0  0  0  0  0  0  0  0  0  0  0
   -1.5000    2.5981    0.0000 C   0  0  0  0  0  0  0  0  0  0  0  0
   -3.0000    2.5981    0.0000 N   0  0  0  0  0  0  0  0  0  0  0  0
   -3.7500    3.8971    0.0000 C   0  0  0  0  0  0  0  0  0  0  0  0
   -3.0000    5.1962    0.0000 O   0  0  0  0  0  0  0  0  0  0  0  0
   -5.2500    3.8971    0.0000 N   0  0  0  0  0  0  0  0  0  0  0  0
   -6.0000    5.1962    0.0000 C   0  0  0  0  0  0  0  0  0  0  0  0
   -5.2500    6.4952    0.0000 C   0  0  0  0  0  0  0  0  0  0  0  0
   -6.0000    7.7942    0.0000 C   0  0  0  0  0  0  0  0  0  0  0  0
   -7.5000    7.7942    0.0000 C   0  0  0  0  0  0  0  0  0  0  0  0
   -8.2500    6.4952    0.0000 C   0  0  0  0  0  0  0  0  0  0  0  0
   -7.5000    5.1962    0.0000 N   0  0  0  0  0  0  0  0  0  0  0  0
   -9.7500    6.4952    0.0000 C   0  0  0  0  0  0  0  0  0  0  0  0
  -11.2500    6.4952    0.0000 F   0  0  0  0  0  0  0  0  0  0  0  0
   -9.7500    7.9952    0.0000 F   0  0  0  0  0  0  0  0  0  0  0  0
   -9.7500    4.9952    0.0000 F   0  0  0  0  0  0  0  0  0  0  0  0
   -0.7500    3.8971    0.0000 C   0  0  0  0  0  0  0  0  0  0  0  0
    0.7500    3.8971    0.0000 C   0  0  0  0  0  0  0  0  0  0  0  0
    1.5000    2.5981    0.0000 N   0  0  0  0  0  0  0  0  0  0  0  0
    0.7500    1.2990    0.0000 C   0  0  0  0  0  0  0  0  0  0  0  0
  1  2  1  0
  2  3  2  0
  3  4  1  0
  4  5  2  0
  5  6  1  0
  6  7  2  0
  7  8  1  0
  8  9  1  0
  9 10  2  0
  9 11  1  0
 11 12  1  0
 12 13  2  0
 13 14  1  0
 14 15  2  0
 15 16  1  0
 16 17  2  0
 16 18  1  0
 18 19  1  0
 18 20  1  0
 18 21  1  0
  7 22  1  0
 22 23  2  0
 23 24  1  0
 24 25  2  0
 25  2  1  0
 25  6  1  0
 17 12  1  0
M  END
>  <Molecule>  (352) 
CHEMBL1966816

>  <Standard Type>  (352) 
Ki

>  <Standard Relation>  (352) 
>

>  <Standard Value>  (352) 
1584.89

>  <Standard Units>  (352) 
nM

>  <pChEMBL Value>  (352) 
nan

>  <Comment>  (352) 
inactive

>  <Compound Key>  (352) 
SID103904882

>  <Assay>  (352) 
CHEMBL1963742

>  <Assay Description>  (352) 
PUBCHEM_BIOASSAY: Navigating the Kinome. (Class of assay: other) Panel member name: JAK3

>  <BAO Format>  (352) 
assay format

>  <Target>  (352) 
CHEMBL2148

>  <Target Pref. Name>  (352) 
Tyrosine-protein kinase JAK3

>  <Target Organism>  (352) 
Homo sapiens

>  <Target Type>  (352) 
SINGLE PROTEIN

>  <Document>  (352) 
CHEMBL1201862

>  <Source>  (352) 
PubChem BioAssays

>  <Max Phase>  (352) 
0

>  <#Ro5 Violations>  (352) 
0

>  <Molecular Weight>  (352) 
350.28

>  <Ligand Efficiency BEI>  (352) 
nan

>  <Ligand Efficiency LE>  (352) 
nan

>  <Ligand Efficiency LLE>  (352) 
nan

>  <Ligand Efficiency SEI>  (352) 
nan

>  <ALogP>  (352) 
4.43

>  <Assay Organism>  (352) 
nan

>  <Assay Tissue ChEMBL ID>  (352) 
nan

>  <Assay Tissue Name>  (352) 
nan

>  <Assay Cell Type>  (352) 
nan

>  <Assay Subcellular Fraction>  (352) 
nan

>  <Organism Tax ID>  (352) 
9606

>  <BAO Format ID>  (352) 
BAO_0000019

>  <Published Type>  (352) 
nan

>  <Published Relation>  (352) 
nan

>  <Published Value>  (352) 
nan

>  <Published Units>  (352) 
nan

>  <Canonical Smiles>  (352) 
Fc1cccc2c(NC(=O)Nc3cccc(n3)C(F)(F)F)ccnc12

>  <Data Validity Comment>  (352) 
nan

>  <Document Journal>  (352) 
nan

>  <Document Year>  (352) 
nan

>  <SRC ID>  (352) 
7

>  <UO Units>  (352) 
UO_0000065

>  <Potential Duplicate>  (352) 
False

>  <Class>  (352) 
0

$$$$

     RDKit          2D

 35 40  0  0  0  0  0  0  0  0999 V2000
   -0.0000   -5.1073    0.0000 C   0  0  0  0  0  0  0  0  0  0  0  0
   -0.0000   -3.6073    0.0000 C   0  0  0  0  0  0  0  0  0  0  0  0
    1.2135   -2.7256    0.0000 C   0  0  0  0  0  0  0  0  0  0  0  0
    2.6401   -3.1891    0.0000 C   0  0  0  0  0  0  0  0  0  0  0  0
    2.9520   -4.6564    0.0000 C   0  0  0  0  0  0  0  0  0  0  0  0
    4.3786   -5.1199    0.0000 C   0  0  0  0  0  0  0  0  0  0  0  0
    5.4933   -4.1162    0.0000 C   0  0  0  0  0  0  0  0  0  0  0  0
    5.1814   -2.6490    0.0000 C   0  0  0  0  0  0  0  0  0  0  0  0
    6.2961   -1.6453    0.0000 O   0  0  0  0  0  0  0  0  0  0  0  0
    7.7227   -2.1088    0.0000 C   0  0  0  0  0  0  0  0  0  0  0  0
    8.8374   -1.1051    0.0000 C   0  0  0  0  0  0  0  0  0  0  0  0
   10.2640   -1.5686    0.0000 C   0  0  0  0  0  0  0  0  0  0  0  0
   11.3787   -0.5649    0.0000 C   0  0  0  0  0  0  0  0  0  0  0  0
   11.0669    0.9023    0.0000 C   0  0  0  0  0  0  0  0  0  0  0  0
    9.6403    1.3658    0.0000 C   0  0  0  0  0  0  0  0  0  0  0  0
    8.5256    0.3621    0.0000 C   0  0  0  0  0  0  0  0  0  0  0  0
    3.7548   -2.1855    0.0000 C   0  0  0  0  0  0  0  0  0  0  0  0
    0.7500   -1.2990    0.0000 C   0  0  0  0  0  0  0  0  0  0  0  0
    1.5000    0.0000    0.0000 C   0  0  0  0  0  0  0  0  0  0  0  0
    3.0000    0.0000    0.0000 N   0  0  0  0  0  0  0  0  0  0  0  0
    0.7500    1.2990    0.0000 N   0  0  0  0  0  0  0  0  0  0  0  0
   -0.7500    1.2990    0.0000 C   0  0  0  0  0  0  0  0  0  0  0  0
   -1.5000    0.0000    0.0000 N   0  0  0  0  0  0  0  0  0  0  0  0
   -0.7500   -1.2990    0.0000 C   0  0  0  0  0  0  0  0  0  0  0  0
   -1.2135   -2.7256    0.0000 N   0  0  0  0  0  0  0  0  0  0  0  0
   -2.6401   -3.1891    0.0000 C   0  0  0  0  0  0  0  0  0  0  0  0
   -3.9766   -2.5082    0.0000 C   0  0  0  0  0  0  0  0  0  0  0  0
   -4.6576   -3.8447    0.0000 C   0  0  0  0  0  0  0  0  0  0  0  0
   -6.0842   -4.3082    0.0000 C   0  0  0  0  0  0  0  0  0  0  0  0
   -7.1989   -3.3045    0.0000 N   0  0  0  0  0  0  0  0  0  0  0  0
   -8.6661   -3.6164    0.0000 C   0  0  0  0  0  0  0  0  0  0  0  0
   -9.4161   -2.3173    0.0000 C   0  0  0  0  0  0  0  0  0  0  0  0
   -8.4124   -1.2026    0.0000 C   0  0  0  0  0  0  0  0  0  0  0  0
   -7.0421   -1.8127    0.0000 C   0  0  0  0  0  0  0  0  0  0  0  0
   -3.3211   -4.5257    0.0000 C   0  0  0  0  0  0  0  0  0  0  0  0
  1  2  1  0
  2  3  2  0
  3  4  1  0
  4  5  2  0
  5  6  1  0
  6  7  2  0
  7  8  1  0
  8  9  1  0
  9 10  1  0
 10 11  1  0
 11 12  2  0
 12 13  1  0
 13 14  2  0
 14 15  1  0
 15 16  2  0
  8 17  2  0
  3 18  1  0
 18 19  2  0
 19 20  1  0
 19 21  1  0
 21 22  2  0
 22 23  1  0
 23 24  2  0
 24 25  1  0
 25 26  1  0
 26 27  1  0
 27 28  1  0
 28 29  1  0
 29 30  1  0
 30 31  1  0
 31 32  1  0
 32 33  1  0
 33 34  1  0
 28 35  1  0
 25  2  1  0
 17  4  1  0
 16 11  1  0
 24 18  1  0
 35 26  1  0
 34 30  1  0
M  END
>  <Molecule>  (353) 
CHEMBL1968791

>  <Standard Type>  (353) 
Ki

>  <Standard Relation>  (353) 
>

>  <Standard Value>  (353) 
1584.89

>  <Standard Units>  (353) 
nM

>  <pChEMBL Value>  (353) 
nan

>  <Comment>  (353) 
inactive

>  <Compound Key>  (353) 
SID103904993

>  <Assay>  (353) 
CHEMBL1963742

>  <Assay Description>  (353) 
PUBCHEM_BIOASSAY: Navigating the Kinome. (Class of assay: other) Panel member name: JAK3

>  <BAO Format>  (353) 
assay format

>  <Target>  (353) 
CHEMBL2148

>  <Target Pref. Name>  (353) 
Tyrosine-protein kinase JAK3

>  <Target Organism>  (353) 
Homo sapiens

>  <Target Type>  (353) 
SINGLE PROTEIN

>  <Document>  (353) 
CHEMBL1201862

>  <Source>  (353) 
PubChem BioAssays

>  <Max Phase>  (353) 
0

>  <#Ro5 Violations>  (353) 
1

>  <Molecular Weight>  (353) 
467.62

>  <Ligand Efficiency BEI>  (353) 
nan

>  <Ligand Efficiency LE>  (353) 
nan

>  <Ligand Efficiency LLE>  (353) 
nan

>  <Ligand Efficiency SEI>  (353) 
nan

>  <ALogP>  (353) 
5.61

>  <Assay Organism>  (353) 
nan

>  <Assay Tissue ChEMBL ID>  (353) 
nan

>  <Assay Tissue Name>  (353) 
nan

>  <Assay Cell Type>  (353) 
nan

>  <Assay Subcellular Fraction>  (353) 
nan

>  <Organism Tax ID>  (353) 
9606

>  <BAO Format ID>  (353) 
BAO_0000019

>  <Published Type>  (353) 
nan

>  <Published Relation>  (353) 
nan

>  <Published Value>  (353) 
nan

>  <Published Units>  (353) 
nan

>  <Canonical Smiles>  (353) 
Cc1c(c2cccc(OCc3ccccc3)c2)c4c(N)ncnc4n1C5CC(CN6CCCC6)C5

>  <Data Validity Comment>  (353) 
nan

>  <Document Journal>  (353) 
nan

>  <Document Year>  (353) 
nan

>  <SRC ID>  (353) 
7

>  <UO Units>  (353) 
UO_0000065

>  <Potential Duplicate>  (353) 
False

>  <Class>  (353) 
0

$$$$

     RDKit          2D

 26 29  0  0  0  0  0  0  0  0999 V2000
    3.0000    0.0000    0.0000 O   0  0  0  0  0  0  0  0  0  0  0  0
    1.5000    0.0000    0.0000 C   0  0  0  0  0  0  0  0  0  0  0  0
    0.7500   -1.2990    0.0000 C   0  0  0  0  0  0  0  0  0  0  0  0
   -0.7500   -1.2990    0.0000 C   0  0  0  0  0  0  0  0  0  0  0  0
   -1.5000    0.0000    0.0000 C   0  0  0  0  0  0  0  0  0  0  0  0
   -0.7500    1.2990    0.0000 C   0  0  0  0  0  0  0  0  0  0  0  0
   -1.2135    2.7256    0.0000 S   0  0  0  0  0  0  0  0  0  0  0  0
   -0.0000    3.6073    0.0000 C   0  0  0  0  0  0  0  0  0  0  0  0
   -0.0000    5.1073    0.0000 N   0  0  0  0  0  0  0  0  0  0  0  0
    1.2990    5.8573    0.0000 C   0  0  0  0  0  0  0  0  0  0  0  0
    2.5981    5.1073    0.0000 O   0  0  0  0  0  0  0  0  0  0  0  0
    1.2990    7.3573    0.0000 N   0  0  0  0  0  0  0  0  0  0  0  0
    2.5981    8.1073    0.0000 C   0  0  0  0  0  0  0  0  0  0  0  0
    3.8971    7.3573    0.0000 C   0  0  0  0  0  0  0  0  0  0  0  0
    5.1962    8.1073    0.0000 C   0  0  0  0  0  0  0  0  0  0  0  0
    5.1962    9.6073    0.0000 C   0  0  0  0  0  0  0  0  0  0  0  0
    3.8971   10.3573    0.0000 C   0  0  0  0  0  0  0  0  0  0  0  0
    2.5981    9.6073    0.0000 C   0  0  0  0  0  0  0  0  0  0  0  0
    1.2990   10.3573    0.0000 C   0  0  0  0  0  0  0  0  0  0  0  0
    1.2990   11.8573    0.0000 C   0  0  0  0  0  0  0  0  0  0  0  0
    0.0000   12.6073    0.0000 C   0  0  0  0  0  0  0  0  0  0  0  0
   -1.2990   11.8573    0.0000 C   0  0  0  0  0  0  0  0  0  0  0  0
   -1.2990   10.3573    0.0000 C   0  0  0  0  0  0  0  0  0  0  0  0
    0.0000    9.6073    0.0000 C   0  0  0  0  0  0  0  0  0  0  0  0
    1.2135    2.7256    0.0000 N   0  0  0  0  0  0  0  0  0  0  0  0
    0.7500    1.2990    0.0000 C   0  0  0  0  0  0  0  0  0  0  0  0
  1  2  1  0
  2  3  2  0
  3  4  1  0
  4  5  2  0
  5  6  1  0
  6  7  1  0
  7  8  1  0
  8  9  1  0
  9 10  1  0
 10 11  2  0
 10 12  1  0
 12 13  1  0
 13 14  2  0
 14 15  1  0
 15 16  2  0
 16 17  1  0
 17 18  2  0
 18 19  1  0
 19 20  2  0
 20 21  1  0
 21 22  2  0
 22 23  1  0
 23 24  2  0
  8 25  2  0
 25 26  1  0
 26  2  1  0
 26  6  2  0
 18 13  1  0
 24 19  1  0
M  END
>  <Molecule>  (354) 
CHEMBL2002690

>  <Standard Type>  (354) 
Ki

>  <Standard Relation>  (354) 
>

>  <Standard Value>  (354) 
5011.87

>  <Standard Units>  (354) 
nM

>  <pChEMBL Value>  (354) 
nan

>  <Comment>  (354) 
inactive

>  <Compound Key>  (354) 
SID103905337

>  <Assay>  (354) 
CHEMBL1963742

>  <Assay Description>  (354) 
PUBCHEM_BIOASSAY: Navigating the Kinome. (Class of assay: other) Panel member name: JAK3

>  <BAO Format>  (354) 
assay format

>  <Target>  (354) 
CHEMBL2148

>  <Target Pref. Name>  (354) 
Tyrosine-protein kinase JAK3

>  <Target Organism>  (354) 
Homo sapiens

>  <Target Type>  (354) 
SINGLE PROTEIN

>  <Document>  (354) 
CHEMBL1201862

>  <Source>  (354) 
PubChem BioAssays

>  <Max Phase>  (354) 
0

>  <#Ro5 Violations>  (354) 
1

>  <Molecular Weight>  (354) 
361.43

>  <Ligand Efficiency BEI>  (354) 
nan

>  <Ligand Efficiency LE>  (354) 
nan

>  <Ligand Efficiency LLE>  (354) 
nan

>  <Ligand Efficiency SEI>  (354) 
nan

>  <ALogP>  (354) 
5.31

>  <Assay Organism>  (354) 
nan

>  <Assay Tissue ChEMBL ID>  (354) 
nan

>  <Assay Tissue Name>  (354) 
nan

>  <Assay Cell Type>  (354) 
nan

>  <Assay Subcellular Fraction>  (354) 
nan

>  <Organism Tax ID>  (354) 
9606

>  <BAO Format ID>  (354) 
BAO_0000019

>  <Published Type>  (354) 
nan

>  <Published Relation>  (354) 
nan

>  <Published Value>  (354) 
nan

>  <Published Units>  (354) 
nan

>  <Canonical Smiles>  (354) 
Oc1cccc2sc(NC(=O)Nc3ccccc3c4ccccc4)nc12

>  <Data Validity Comment>  (354) 
nan

>  <Document Journal>  (354) 
nan

>  <Document Year>  (354) 
nan

>  <SRC ID>  (354) 
7

>  <UO Units>  (354) 
UO_0000065

>  <Potential Duplicate>  (354) 
False

>  <Class>  (354) 
0

$$$$

     RDKit          2D

 17 19  0  0  0  0  0  0  0  0999 V2000
   -2.6380    5.6918    0.0000 O   0  0  0  0  0  0  0  0  0  0  0  0
   -2.9499    4.2246    0.0000 C   0  0  0  0  0  0  0  0  0  0  0  0
   -4.3764    3.7611    0.0000 O   0  0  0  0  0  0  0  0  0  0  0  0
   -1.8351    3.2209    0.0000 C   0  0  0  0  0  0  0  0  0  0  0  0
   -0.4086    3.6844    0.0000 C   0  0  0  0  0  0  0  0  0  0  0  0
    0.7062    2.6807    0.0000 C   0  0  0  0  0  0  0  0  0  0  0  0
    2.1328    3.1443    0.0000 C   0  0  0  0  0  0  0  0  0  0  0  0
    2.5963    4.5709    0.0000 C   0  0  0  0  0  0  0  0  0  0  0  0
    4.0963    4.5709    0.0000 C   0  0  0  0  0  0  0  0  0  0  0  0
    4.5598    3.1443    0.0000 C   0  0  0  0  0  0  0  0  0  0  0  0
    3.3463    2.2626    0.0000 S   0  0  0  0  0  0  0  0  0  0  0  0
    0.3943    1.2135    0.0000 N   0  0  0  0  0  0  0  0  0  0  0  0
    1.2760    0.0000    0.0000 N   0  0  0  0  0  0  0  0  0  0  0  0
    0.3943   -1.2135    0.0000 C   0  0  0  0  0  0  0  0  0  0  0  0
   -1.0323   -0.7500    0.0000 C   0  0  0  0  0  0  0  0  0  0  0  0
   -1.0323    0.7500    0.0000 C   0  0  0  0  0  0  0  0  0  0  0  0
   -2.1470    1.7537    0.0000 N   0  0  0  0  0  0  0  0  0  0  0  0
  1  2  1  0
  2  3  2  0
  2  4  1  0
  4  5  1  0
  5  6  2  0
  6  7  1  0
  7  8  2  0
  8  9  1  0
  9 10  2  0
 10 11  1  0
  6 12  1  0
 12 13  1  0
 13 14  2  0
 14 15  1  0
 15 16  2  0
 16 17  1  0
 17  4  2  0
 11  7  1  0
 16 12  1  0
M  END
>  <Molecule>  (355) 
CHEMBL1977619

>  <Standard Type>  (355) 
Ki

>  <Standard Relation>  (355) 
>

>  <Standard Value>  (355) 
15848.93

>  <Standard Units>  (355) 
nM

>  <pChEMBL Value>  (355) 
nan

>  <Comment>  (355) 
inactive

>  <Compound Key>  (355) 
SID103905074

>  <Assay>  (355) 
CHEMBL1963742

>  <Assay Description>  (355) 
PUBCHEM_BIOASSAY: Navigating the Kinome. (Class of assay: other) Panel member name: JAK3

>  <BAO Format>  (355) 
assay format

>  <Target>  (355) 
CHEMBL2148

>  <Target Pref. Name>  (355) 
Tyrosine-protein kinase JAK3

>  <Target Organism>  (355) 
Homo sapiens

>  <Target Type>  (355) 
SINGLE PROTEIN

>  <Document>  (355) 
CHEMBL1201862

>  <Source>  (355) 
PubChem BioAssays

>  <Max Phase>  (355) 
0

>  <#Ro5 Violations>  (355) 
0

>  <Molecular Weight>  (355) 
245.26

>  <Ligand Efficiency BEI>  (355) 
nan

>  <Ligand Efficiency LE>  (355) 
nan

>  <Ligand Efficiency LLE>  (355) 
nan

>  <Ligand Efficiency SEI>  (355) 
nan

>  <ALogP>  (355) 
2.16

>  <Assay Organism>  (355) 
nan

>  <Assay Tissue ChEMBL ID>  (355) 
nan

>  <Assay Tissue Name>  (355) 
nan

>  <Assay Cell Type>  (355) 
nan

>  <Assay Subcellular Fraction>  (355) 
nan

>  <Organism Tax ID>  (355) 
9606

>  <BAO Format ID>  (355) 
BAO_0000019

>  <Published Type>  (355) 
nan

>  <Published Relation>  (355) 
nan

>  <Published Value>  (355) 
nan

>  <Published Units>  (355) 
nan

>  <Canonical Smiles>  (355) 
OC(=O)c1cc(c2cccs2)n3nccc3n1

>  <Data Validity Comment>  (355) 
nan

>  <Document Journal>  (355) 
nan

>  <Document Year>  (355) 
nan

>  <SRC ID>  (355) 
7

>  <UO Units>  (355) 
UO_0000065

>  <Potential Duplicate>  (355) 
False

>  <Class>  (355) 
0

$$$$

     RDKit          2D

 32 34  0  0  0  0  0  0  0  0999 V2000
   15.2114    3.2661    0.0000 O   0  0  0  0  0  0  0  0  0  0  0  0
   13.7849    2.8025    0.0000 C   0  0  0  0  0  0  0  0  0  0  0  0
   12.6701    3.8062    0.0000 C   0  0  0  0  0  0  0  0  0  0  0  0
   12.9820    5.2735    0.0000 O   0  0  0  0  0  0  0  0  0  0  0  0
   11.2436    3.3427    0.0000 C   0  0  0  0  0  0  0  0  0  0  0  0
   10.1288    4.3464    0.0000 O   0  0  0  0  0  0  0  0  0  0  0  0
    8.7023    3.8829    0.0000 C   0  0  0  0  0  0  0  0  0  0  0  0
    8.3904    2.4157    0.0000 C   0  0  0  0  0  0  0  0  0  0  0  0
    6.9638    1.9521    0.0000 C   0  0  0  0  0  0  0  0  0  0  0  0
    7.5739    0.5818    0.0000 O   0  0  0  0  0  0  0  0  0  0  0  0
    7.5739   -0.9182    0.0000 C   0  0  0  0  0  0  0  0  0  0  0  0
    6.9638   -2.2885    0.0000 C   0  0  0  0  0  0  0  0  0  0  0  0
    5.8491   -3.2922    0.0000 C   0  0  0  0  0  0  0  0  0  0  0  0
    4.4225   -3.7557    0.0000 C   0  0  0  0  0  0  0  0  0  0  0  0
    2.9307   -3.5989    0.0000 C   0  0  0  0  0  0  0  0  0  0  0  0
    1.6317   -2.8489    0.0000 O   0  0  0  0  0  0  0  0  0  0  0  0
    0.7500   -1.2990    0.0000 C   0  0  0  0  0  0  0  0  0  0  0  0
    1.5000    0.0000    0.0000 N   0  0  0  0  0  0  0  0  0  0  0  0
    0.7500    1.2990    0.0000 C   0  0  0  0  0  0  0  0  0  0  0  0
    1.6317    2.5126    0.0000 N   0  0  0  0  0  0  0  0  0  0  0  0
    2.9307    3.2626    0.0000 C   0  0  0  0  0  0  0  0  0  0  0  0
    2.4672    4.6891    0.0000 O   0  0  0  0  0  0  0  0  0  0  0  0
    4.4225    3.4194    0.0000 N   0  0  0  0  0  0  0  0  0  0  0  0
    5.8491    2.9558    0.0000 C   0  0  0  0  0  0  0  0  0  0  0  0
    6.1610    4.4231    0.0000 C   0  0  0  0  0  0  0  0  0  0  0  0
    7.5875    4.8866    0.0000 C   0  0  0  0  0  0  0  0  0  0  0  0
    7.8994    6.3538    0.0000 Cl  0  0  0  0  0  0  0  0  0  0  0  0
   -0.7500    1.2990    0.0000 C   0  0  0  0  0  0  0  0  0  0  0  0
   -1.5000    0.0000    0.0000 N   0  0  0  0  0  0  0  0  0  0  0  0
   -0.7500   -1.2990    0.0000 C   0  0  0  0  0  0  0  0  0  0  0  0
   -1.5000   -2.5981    0.0000 C   0  0  0  0  0  0  0  0  0  0  0  0
   -2.2500   -3.8971    0.0000 N   0  0  0  0  0  0  0  0  0  0  0  0
  1  2  1  0
  2  3  1  0
  3  4  1  0
  3  5  1  0
  5  6  1  0
  6  7  1  0
  7  8  2  0
  8  9  1  0
  9 10  1  0
 10 11  1  0
 11 12  1  0
 12 13  1  0
 13 14  1  0
 14 15  1  0
 15 16  1  0
 16 17  1  0
 17 18  1  0
 18 19  2  0
 19 20  1  0
 20 21  1  0
 21 22  2  0
 21 23  1  0
 23 24  1  0
 24 25  1  0
 25 26  2  0
 26 27  1  0
 19 28  1  0
 28 29  2  0
 29 30  1  0
 30 31  1  0
 31 32  3  0
 26  7  1  0
 24  9  2  0
 30 17  2  0
M  END
>  <Molecule>  (356) 
CHEMBL223257

>  <Standard Type>  (356) 
Ki

>  <Standard Relation>  (356) 
>

>  <Standard Value>  (356) 
1584.89

>  <Standard Units>  (356) 
nM

>  <pChEMBL Value>  (356) 
nan

>  <Comment>  (356) 
inactive

>  <Compound Key>  (356) 
SID103905153

>  <Assay>  (356) 
CHEMBL1963742

>  <Assay Description>  (356) 
PUBCHEM_BIOASSAY: Navigating the Kinome. (Class of assay: other) Panel member name: JAK3

>  <BAO Format>  (356) 
assay format

>  <Target>  (356) 
CHEMBL2148

>  <Target Pref. Name>  (356) 
Tyrosine-protein kinase JAK3

>  <Target Organism>  (356) 
Homo sapiens

>  <Target Type>  (356) 
SINGLE PROTEIN

>  <Document>  (356) 
CHEMBL1201862

>  <Source>  (356) 
PubChem BioAssays

>  <Max Phase>  (356) 
0

>  <#Ro5 Violations>  (356) 
0

>  <Molecular Weight>  (356) 
463.88

>  <Ligand Efficiency BEI>  (356) 
nan

>  <Ligand Efficiency LE>  (356) 
nan

>  <Ligand Efficiency LLE>  (356) 
nan

>  <Ligand Efficiency SEI>  (356) 
nan

>  <ALogP>  (356) 
2.32

>  <Assay Organism>  (356) 
nan

>  <Assay Tissue ChEMBL ID>  (356) 
nan

>  <Assay Tissue Name>  (356) 
nan

>  <Assay Cell Type>  (356) 
nan

>  <Assay Subcellular Fraction>  (356) 
nan

>  <Organism Tax ID>  (356) 
9606

>  <BAO Format ID>  (356) 
BAO_0000019

>  <Published Type>  (356) 
nan

>  <Published Relation>  (356) 
nan

>  <Published Value>  (356) 
nan

>  <Published Units>  (356) 
nan

>  <Canonical Smiles>  (356) 
OCC(O)COc1cc2OCCCCCOc3nc(NC(=O)Nc2cc1Cl)cnc3C#N

>  <Data Validity Comment>  (356) 
nan

>  <Document Journal>  (356) 
nan

>  <Document Year>  (356) 
nan

>  <SRC ID>  (356) 
7

>  <UO Units>  (356) 
UO_0000065

>  <Potential Duplicate>  (356) 
False

>  <Class>  (356) 
0

$$$$

     RDKit          2D

 23 25  0  0  0  0  0  0  0  0999 V2000
   -2.5607   -7.0333    0.0000 O   0  0  0  0  0  0  0  0  0  0  0  0
   -1.0607   -7.0333    0.0000 C   0  0  0  0  0  0  0  0  0  0  0  0
   -0.3107   -8.3323    0.0000 O   0  0  0  0  0  0  0  0  0  0  0  0
   -0.3107   -5.7342    0.0000 C   0  0  0  0  0  0  0  0  0  0  0  0
   -0.6989   -4.2853    0.0000 C   0  0  0  0  0  0  0  0  0  0  0  0
    0.7500   -3.8971    0.0000 N   0  0  0  0  0  0  0  0  0  0  0  0
    1.5000   -2.5981    0.0000 C   0  0  0  0  0  0  0  0  0  0  0  0
    0.7500   -1.2990    0.0000 C   0  0  0  0  0  0  0  0  0  0  0  0
    1.5000    0.0000    0.0000 C   0  0  0  0  0  0  0  0  0  0  0  0
    0.7500    1.2990    0.0000 C   0  0  0  0  0  0  0  0  0  0  0  0
   -0.7500    1.2990    0.0000 C   0  0  0  0  0  0  0  0  0  0  0  0
   -1.5000    2.5981    0.0000 O   0  0  0  0  0  0  0  0  0  0  0  0
   -0.7500    3.8971    0.0000 C   0  0  0  0  0  0  0  0  0  0  0  0
   -1.5000    5.1962    0.0000 C   0  0  0  0  0  0  0  0  0  0  0  0
   -0.7500    6.4952    0.0000 C   0  0  0  0  0  0  0  0  0  0  0  0
   -1.5000    7.7942    0.0000 C   0  0  0  0  0  0  0  0  0  0  0  0
   -3.0000    7.7942    0.0000 C   0  0  0  0  0  0  0  0  0  0  0  0
   -3.7500    6.4952    0.0000 C   0  0  0  0  0  0  0  0  0  0  0  0
   -3.0000    5.1962    0.0000 C   0  0  0  0  0  0  0  0  0  0  0  0
   -1.5000    0.0000    0.0000 C   0  0  0  0  0  0  0  0  0  0  0  0
   -0.7500   -1.2990    0.0000 C   0  0  0  0  0  0  0  0  0  0  0  0
   -1.5000   -2.5981    0.0000 Cl  0  0  0  0  0  0  0  0  0  0  0  0
    1.1382   -5.3460    0.0000 C   0  0  0  0  0  0  0  0  0  0  0  0
  1  2  1  0
  2  3  2  0
  2  4  1  0
  4  5  1  0
  5  6  1  0
  6  7  1  0
  7  8  1  0
  8  9  2  0
  9 10  1  0
 10 11  2  0
 11 12  1  0
 12 13  1  0
 13 14  1  0
 14 15  2  0
 15 16  1  0
 16 17  2  0
 17 18  1  0
 18 19  2  0
 11 20  1  0
 20 21  2  0
 21 22  1  0
  6 23  1  0
 23  4  1  0
 21  8  1  0
 19 14  1  0
M  END
>  <Molecule>  (357) 
CHEMBL1987998

>  <Standard Type>  (357) 
Ki

>  <Standard Relation>  (357) 
>

>  <Standard Value>  (357) 
5011.87

>  <Standard Units>  (357) 
nM

>  <pChEMBL Value>  (357) 
nan

>  <Comment>  (357) 
inactive

>  <Compound Key>  (357) 
SID103904930

>  <Assay>  (357) 
CHEMBL1963742

>  <Assay Description>  (357) 
PUBCHEM_BIOASSAY: Navigating the Kinome. (Class of assay: other) Panel member name: JAK3

>  <BAO Format>  (357) 
assay format

>  <Target>  (357) 
CHEMBL2148

>  <Target Pref. Name>  (357) 
Tyrosine-protein kinase JAK3

>  <Target Organism>  (357) 
Homo sapiens

>  <Target Type>  (357) 
SINGLE PROTEIN

>  <Document>  (357) 
CHEMBL1201862

>  <Source>  (357) 
PubChem BioAssays

>  <Max Phase>  (357) 
0

>  <#Ro5 Violations>  (357) 
0

>  <Molecular Weight>  (357) 
331.8

>  <Ligand Efficiency BEI>  (357) 
nan

>  <Ligand Efficiency LE>  (357) 
nan

>  <Ligand Efficiency LLE>  (357) 
nan

>  <Ligand Efficiency SEI>  (357) 
nan

>  <ALogP>  (357) 
3.44

>  <Assay Organism>  (357) 
nan

>  <Assay Tissue ChEMBL ID>  (357) 
nan

>  <Assay Tissue Name>  (357) 
nan

>  <Assay Cell Type>  (357) 
nan

>  <Assay Subcellular Fraction>  (357) 
nan

>  <Organism Tax ID>  (357) 
9606

>  <BAO Format ID>  (357) 
BAO_0000019

>  <Published Type>  (357) 
nan

>  <Published Relation>  (357) 
nan

>  <Published Value>  (357) 
nan

>  <Published Units>  (357) 
nan

>  <Canonical Smiles>  (357) 
OC(=O)C1CN(Cc2ccc(OCc3ccccc3)cc2Cl)C1

>  <Data Validity Comment>  (357) 
nan

>  <Document Journal>  (357) 
nan

>  <Document Year>  (357) 
nan

>  <SRC ID>  (357) 
7

>  <UO Units>  (357) 
UO_0000065

>  <Potential Duplicate>  (357) 
False

>  <Class>  (357) 
0

$$$$

     RDKit          2D

 26 29  0  0  0  0  0  0  0  0999 V2000
   -8.7911  -13.3831    0.0000 C   0  0  0  0  0  0  0  0  0  0  0  0
   -7.3645  -12.9195    0.0000 O   0  0  0  0  0  0  0  0  0  0  0  0
   -7.0526  -11.4523    0.0000 C   0  0  0  0  0  0  0  0  0  0  0  0
   -8.1673  -10.4486    0.0000 C   0  0  0  0  0  0  0  0  0  0  0  0
   -7.8555   -8.9814    0.0000 C   0  0  0  0  0  0  0  0  0  0  0  0
   -6.4289   -8.5179    0.0000 C   0  0  0  0  0  0  0  0  0  0  0  0
   -6.1170   -7.0506    0.0000 C   0  0  0  0  0  0  0  0  0  0  0  0
   -4.6904   -6.5871    0.0000 N   0  0  0  0  0  0  0  0  0  0  0  0
   -4.3786   -5.1199    0.0000 C   0  0  0  0  0  0  0  0  0  0  0  0
   -2.9520   -4.6564    0.0000 C   0  0  0  0  0  0  0  0  0  0  0  0
   -2.6401   -3.1891    0.0000 C   0  0  0  0  0  0  0  0  0  0  0  0
   -3.7548   -2.1855    0.0000 C   0  0  0  0  0  0  0  0  0  0  0  0
   -5.1814   -2.6490    0.0000 C   0  0  0  0  0  0  0  0  0  0  0  0
   -6.2961   -1.6453    0.0000 F   0  0  0  0  0  0  0  0  0  0  0  0
   -5.4933   -4.1162    0.0000 N   0  0  0  0  0  0  0  0  0  0  0  0
   -1.2135   -2.7256    0.0000 C   0  0  0  0  0  0  0  0  0  0  0  0
    0.0000   -3.6073    0.0000 C   0  0  0  0  0  0  0  0  0  0  0  0
    1.2135   -2.7256    0.0000 N   0  0  0  0  0  0  0  0  0  0  0  0
    0.7500   -1.2990    0.0000 C   0  0  0  0  0  0  0  0  0  0  0  0
    1.5000    0.0000    0.0000 N   0  0  0  0  0  0  0  0  0  0  0  0
    0.7500    1.2990    0.0000 C   0  0  0  0  0  0  0  0  0  0  0  0
   -0.7500    1.2990    0.0000 C   0  0  0  0  0  0  0  0  0  0  0  0
   -1.5000    0.0000    0.0000 C   0  0  0  0  0  0  0  0  0  0  0  0
   -0.7500   -1.2990    0.0000 C   0  0  0  0  0  0  0  0  0  0  0  0
   -5.3142   -9.5216    0.0000 C   0  0  0  0  0  0  0  0  0  0  0  0
   -5.6260  -10.9888    0.0000 C   0  0  0  0  0  0  0  0  0  0  0  0
  1  2  1  0
  2  3  1  0
  3  4  2  0
  4  5  1  0
  5  6  2  0
  6  7  1  0
  7  8  1  0
  8  9  1  0
  9 10  2  0
 10 11  1  0
 11 12  2  0
 12 13  1  0
 13 14  1  0
 13 15  2  0
 11 16  1  0
 16 17  2  0
 17 18  1  0
 18 19  1  0
 19 20  2  0
 20 21  1  0
 21 22  2  0
 22 23  1  0
 23 24  2  0
  6 25  1  0
 25 26  2  0
 26  3  1  0
 15  9  1  0
 24 16  1  0
 24 19  1  0
M  END
>  <Molecule>  (358) 
CHEMBL1986855

>  <Standard Type>  (358) 
Ki

>  <Standard Relation>  (358) 
=

>  <Standard Value>  (358) 
251.19

>  <Standard Units>  (358) 
nM

>  <pChEMBL Value>  (358) 
6.6

>  <Comment>  (358) 
active

>  <Compound Key>  (358) 
SID103904233

>  <Assay>  (358) 
CHEMBL1963742

>  <Assay Description>  (358) 
PUBCHEM_BIOASSAY: Navigating the Kinome. (Class of assay: other) Panel member name: JAK3

>  <BAO Format>  (358) 
assay format

>  <Target>  (358) 
CHEMBL2148

>  <Target Pref. Name>  (358) 
Tyrosine-protein kinase JAK3

>  <Target Organism>  (358) 
Homo sapiens

>  <Target Type>  (358) 
SINGLE PROTEIN

>  <Document>  (358) 
CHEMBL1201862

>  <Source>  (358) 
PubChem BioAssays

>  <Max Phase>  (358) 
0

>  <#Ro5 Violations>  (358) 
0

>  <Molecular Weight>  (358) 
348.38

>  <Ligand Efficiency BEI>  (358) 
nan

>  <Ligand Efficiency LE>  (358) 
nan

>  <Ligand Efficiency LLE>  (358) 
nan

>  <Ligand Efficiency SEI>  (358) 
nan

>  <ALogP>  (358) 
4.38

>  <Assay Organism>  (358) 
nan

>  <Assay Tissue ChEMBL ID>  (358) 
nan

>  <Assay Tissue Name>  (358) 
nan

>  <Assay Cell Type>  (358) 
nan

>  <Assay Subcellular Fraction>  (358) 
nan

>  <Organism Tax ID>  (358) 
9606

>  <BAO Format ID>  (358) 
BAO_0000019

>  <Published Type>  (358) 
nan

>  <Published Relation>  (358) 
nan

>  <Published Value>  (358) 
nan

>  <Published Units>  (358) 
nan

>  <Canonical Smiles>  (358) 
COc1ccc(CNc2cc(cc(F)n2)c3c[nH]c4ncccc34)cc1

>  <Data Validity Comment>  (358) 
nan

>  <Document Journal>  (358) 
nan

>  <Document Year>  (358) 
nan

>  <SRC ID>  (358) 
7

>  <UO Units>  (358) 
UO_0000065

>  <Potential Duplicate>  (358) 
False

>  <Class>  (358) 
1

$$$$

     RDKit          2D

 38 42  0  0  0  0  0  0  0  0999 V2000
    0.7500   -6.4952    0.0000 C   0  0  0  0  0  0  0  0  0  0  0  0
    1.5000   -5.1962    0.0000 C   0  0  0  0  0  0  0  0  0  0  0  0
    0.7500   -3.8971    0.0000 N   0  0  0  0  0  0  0  0  0  0  0  0
    1.5000   -2.5981    0.0000 N   0  0  0  0  0  0  0  0  0  0  0  0
    3.0000   -2.5981    0.0000 C   0  0  0  0  0  0  0  0  0  0  0  0
    3.8817   -1.3846    0.0000 C   0  0  0  0  0  0  0  0  0  0  0  0
    5.3083   -1.8481    0.0000 C   0  0  0  0  0  0  0  0  0  0  0  0
    5.3083   -3.3481    0.0000 C   0  0  0  0  0  0  0  0  0  0  0  0
    3.8817   -3.8116    0.0000 C   0  0  0  0  0  0  0  0  0  0  0  0
    0.7500   -1.2990    0.0000 C   0  0  0  0  0  0  0  0  0  0  0  0
    1.5000    0.0000    0.0000 N   0  0  0  0  0  0  0  0  0  0  0  0
    0.7500    1.2990    0.0000 C   0  0  0  0  0  0  0  0  0  0  0  0
    1.5000    2.5981    0.0000 N   0  0  0  0  0  0  0  0  0  0  0  0
    3.0000    2.5981    0.0000 C   0  0  0  0  0  0  0  0  0  0  0  0
    3.7500    1.2990    0.0000 C   0  0  0  0  0  0  0  0  0  0  0  0
    5.2500    1.2990    0.0000 C   0  0  0  0  0  0  0  0  0  0  0  0
    6.0000    2.5981    0.0000 C   0  0  0  0  0  0  0  0  0  0  0  0
    5.2500    3.8971    0.0000 C   0  0  0  0  0  0  0  0  0  0  0  0
    3.7500    3.8971    0.0000 C   0  0  0  0  0  0  0  0  0  0  0  0
    3.0000    5.1962    0.0000 O   0  0  0  0  0  0  0  0  0  0  0  0
    3.7500    6.4952    0.0000 C   0  0  0  0  0  0  0  0  0  0  0  0
    7.5000    2.5981    0.0000 C   0  0  0  0  0  0  0  0  0  0  0  0
    8.2500    3.8971    0.0000 O   0  0  0  0  0  0  0  0  0  0  0  0
    8.2500    1.2990    0.0000 N   0  0  0  0  0  0  0  0  0  0  0  0
    9.7500    1.2990    0.0000 C   0  0  0  0  0  0  0  0  0  0  0  0
   10.5000   -0.0000    0.0000 C   0  0  0  0  0  0  0  0  0  0  0  0
   12.0000   -0.0000    0.0000 C   0  0  0  0  0  0  0  0  0  0  0  0
   12.7500    1.2990    0.0000 N   0  0  0  0  0  0  0  0  0  0  0  0
   14.2500    1.2990    0.0000 C   0  0  0  0  0  0  0  0  0  0  0  0
   12.0000    2.5981    0.0000 C   0  0  0  0  0  0  0  0  0  0  0  0
   10.5000    2.5981    0.0000 C   0  0  0  0  0  0  0  0  0  0  0  0
   -0.7500    1.2990    0.0000 N   0  0  0  0  0  0  0  0  0  0  0  0
   -1.5000    0.0000    0.0000 C   0  0  0  0  0  0  0  0  0  0  0  0
   -0.7500   -1.2990    0.0000 C   0  0  0  0  0  0  0  0  0  0  0  0
   -1.5000   -2.5981    0.0000 N   0  0  0  0  0  0  0  0  0  0  0  0
   -3.0000   -2.5981    0.0000 C   0  0  0  0  0  0  0  0  0  0  0  0
   -0.7500   -3.8971    0.0000 C   0  0  0  0  0  0  0  0  0  0  0  0
   -1.5000   -5.1962    0.0000 O   0  0  0  0  0  0  0  0  0  0  0  0
  1  2  1  0
  2  3  1  0
  3  4  1  0
  4  5  1  0
  5  6  1  0
  6  7  1  0
  7  8  1  0
  8  9  1  0
  4 10  1  0
 10 11  2  0
 11 12  1  0
 12 13  1  0
 13 14  1  0
 14 15  2  0
 15 16  1  0
 16 17  2  0
 17 18  1  0
 18 19  2  0
 19 20  1  0
 20 21  1  0
 17 22  1  0
 22 23  2  0
 22 24  1  0
 24 25  1  0
 25 26  1  0
 26 27  1  0
 27 28  1  0
 28 29  1  0
 28 30  1  0
 30 31  1  0
 12 32  2  0
 32 33  1  0
 33 34  2  0
 34 35  1  0
 35 36  1  0
 35 37  1  0
 37 38  2  0
 37  3  1  0
  9  5  1  0
 34 10  1  0
 19 14  1  0
 31 25  1  0
M  END
>  <Molecule>  (359) 
CHEMBL1967560

>  <Standard Type>  (359) 
Ki

>  <Standard Relation>  (359) 
>

>  <Standard Value>  (359) 
1584.89

>  <Standard Units>  (359) 
nM

>  <pChEMBL Value>  (359) 
nan

>  <Comment>  (359) 
inactive

>  <Compound Key>  (359) 
SID103904643

>  <Assay>  (359) 
CHEMBL1963742

>  <Assay Description>  (359) 
PUBCHEM_BIOASSAY: Navigating the Kinome. (Class of assay: other) Panel member name: JAK3

>  <BAO Format>  (359) 
assay format

>  <Target>  (359) 
CHEMBL2148

>  <Target Pref. Name>  (359) 
Tyrosine-protein kinase JAK3

>  <Target Organism>  (359) 
Homo sapiens

>  <Target Type>  (359) 
SINGLE PROTEIN

>  <Document>  (359) 
CHEMBL1201862

>  <Source>  (359) 
PubChem BioAssays

>  <Max Phase>  (359) 
0

>  <#Ro5 Violations>  (359) 
1

>  <Molecular Weight>  (359) 
522.65

>  <Ligand Efficiency BEI>  (359) 
nan

>  <Ligand Efficiency LE>  (359) 
nan

>  <Ligand Efficiency LLE>  (359) 
nan

>  <Ligand Efficiency SEI>  (359) 
nan

>  <ALogP>  (359) 
3.61

>  <Assay Organism>  (359) 
nan

>  <Assay Tissue ChEMBL ID>  (359) 
nan

>  <Assay Tissue Name>  (359) 
nan

>  <Assay Cell Type>  (359) 
nan

>  <Assay Subcellular Fraction>  (359) 
nan

>  <Organism Tax ID>  (359) 
9606

>  <BAO Format ID>  (359) 
BAO_0000019

>  <Published Type>  (359) 
nan

>  <Published Relation>  (359) 
nan

>  <Published Value>  (359) 
nan

>  <Published Units>  (359) 
nan

>  <Canonical Smiles>  (359) 
CCN1N(C2CCCC2)c3nc(Nc4ccc(cc4OC)C(=O)NC5CCN(C)CC5)ncc3N(C)C1=O

>  <Data Validity Comment>  (359) 
nan

>  <Document Journal>  (359) 
nan

>  <Document Year>  (359) 
nan

>  <SRC ID>  (359) 
7

>  <UO Units>  (359) 
UO_0000065

>  <Potential Duplicate>  (359) 
False

>  <Class>  (359) 
0

$$$$

     RDKit          2D

 38 41  0  0  0  0  0  0  0  0999 V2000
   -7.5275  -10.5000    0.0000 C   0  0  0  0  0  0  0  0  0  0  0  0
   -6.2284   -9.7500    0.0000 C   0  0  0  0  0  0  0  0  0  0  0  0
   -6.2284   -8.2500    0.0000 N   0  0  0  0  0  0  0  0  0  0  0  0
   -7.5275   -7.5000    0.0000 C   0  0  0  0  0  0  0  0  0  0  0  0
   -8.8265   -8.2500    0.0000 C   0  0  0  0  0  0  0  0  0  0  0  0
   -4.9294   -7.5000    0.0000 C   0  0  0  0  0  0  0  0  0  0  0  0
   -4.9294   -6.0000    0.0000 C   0  0  0  0  0  0  0  0  0  0  0  0
   -3.6304   -5.2500    0.0000 C   0  0  0  0  0  0  0  0  0  0  0  0
   -3.6304   -3.7500    0.0000 N   0  0  0  0  0  0  0  0  0  0  0  0
   -2.3313   -3.0000    0.0000 C   0  0  0  0  0  0  0  0  0  0  0  0
   -1.0323   -3.7500    0.0000 O   0  0  0  0  0  0  0  0  0  0  0  0
   -2.3313   -1.5000    0.0000 C   0  0  0  0  0  0  0  0  0  0  0  0
   -3.6304   -0.7500    0.0000 C   0  0  0  0  0  0  0  0  0  0  0  0
   -3.6304    0.7500    0.0000 N   0  0  0  0  0  0  0  0  0  0  0  0
   -2.3313    1.5000    0.0000 C   0  0  0  0  0  0  0  0  0  0  0  0
   -2.3313    3.0000    0.0000 N   0  0  0  0  0  0  0  0  0  0  0  0
   -1.0323    0.7500    0.0000 C   0  0  0  0  0  0  0  0  0  0  0  0
    0.3943    1.2135    0.0000 C   0  0  0  0  0  0  0  0  0  0  0  0
    1.2760    0.0000    0.0000 C   0  0  0  0  0  0  0  0  0  0  0  0
    0.3943   -1.2135    0.0000 S   0  0  0  0  0  0  0  0  0  0  0  0
   -1.0323   -0.7500    0.0000 C   0  0  0  0  0  0  0  0  0  0  0  0
    0.8578    2.6401    0.0000 C   0  0  0  0  0  0  0  0  0  0  0  0
    2.3250    2.9520    0.0000 C   0  0  0  0  0  0  0  0  0  0  0  0
    2.7886    4.3786    0.0000 C   0  0  0  0  0  0  0  0  0  0  0  0
    1.7849    5.4933    0.0000 C   0  0  0  0  0  0  0  0  0  0  0  0
    2.2484    6.9199    0.0000 N   0  0  0  0  0  0  0  0  0  0  0  0
    3.7156    7.2317    0.0000 C   0  0  0  0  0  0  0  0  0  0  0  0
    4.7193    6.1170    0.0000 O   0  0  0  0  0  0  0  0  0  0  0  0
    4.1791    8.6583    0.0000 N   0  0  0  0  0  0  0  0  0  0  0  0
    5.6464    8.9702    0.0000 C   0  0  0  0  0  0  0  0  0  0  0  0
    6.6501    7.8555    0.0000 C   0  0  0  0  0  0  0  0  0  0  0  0
    8.1173    8.1673    0.0000 C   0  0  0  0  0  0  0  0  0  0  0  0
    8.5808    9.5939    0.0000 C   0  0  0  0  0  0  0  0  0  0  0  0
    7.5771   10.7086    0.0000 C   0  0  0  0  0  0  0  0  0  0  0  0
    8.0406   12.1352    0.0000 C   0  0  0  0  0  0  0  0  0  0  0  0
    6.1099   10.3968    0.0000 C   0  0  0  0  0  0  0  0  0  0  0  0
    0.3177    5.1814    0.0000 C   0  0  0  0  0  0  0  0  0  0  0  0
   -0.1459    3.7548    0.0000 C   0  0  0  0  0  0  0  0  0  0  0  0
  1  2  1  0
  2  3  1  0
  3  4  1  0
  4  5  1  0
  3  6  1  0
  6  7  1  0
  7  8  1  0
  8  9  1  0
  9 10  1  0
 10 11  2  0
 10 12  1  0
 12 13  2  0
 13 14  1  0
 14 15  2  0
 15 16  1  0
 15 17  1  0
 17 18  1  0
 18 19  2  0
 19 20  1  0
 20 21  1  0
 18 22  1  0
 22 23  2  0
 23 24  1  0
 24 25  2  0
 25 26  1  0
 26 27  1  0
 27 28  2  0
 27 29  1  0
 29 30  1  0
 30 31  2  0
 31 32  1  0
 32 33  2  0
 33 34  1  0
 34 35  1  0
 34 36  2  0
 25 37  1  0
 37 38  2  0
 21 12  1  0
 21 17  2  0
 38 22  1  0
 36 30  1  0
M  END
>  <Molecule>  (360) 
CHEMBL1999414

>  <Standard Type>  (360) 
Ki

>  <Standard Relation>  (360) 
>

>  <Standard Value>  (360) 
5011.87

>  <Standard Units>  (360) 
nM

>  <pChEMBL Value>  (360) 
nan

>  <Comment>  (360) 
inactive

>  <Compound Key>  (360) 
SID103904274

>  <Assay>  (360) 
CHEMBL1963742

>  <Assay Description>  (360) 
PUBCHEM_BIOASSAY: Navigating the Kinome. (Class of assay: other) Panel member name: JAK3

>  <BAO Format>  (360) 
assay format

>  <Target>  (360) 
CHEMBL2148

>  <Target Pref. Name>  (360) 
Tyrosine-protein kinase JAK3

>  <Target Organism>  (360) 
Homo sapiens

>  <Target Type>  (360) 
SINGLE PROTEIN

>  <Document>  (360) 
CHEMBL1201862

>  <Source>  (360) 
PubChem BioAssays

>  <Max Phase>  (360) 
0

>  <#Ro5 Violations>  (360) 
2

>  <Molecular Weight>  (360) 
530.7

>  <Ligand Efficiency BEI>  (360) 
nan

>  <Ligand Efficiency LE>  (360) 
nan

>  <Ligand Efficiency LLE>  (360) 
nan

>  <Ligand Efficiency SEI>  (360) 
nan

>  <ALogP>  (360) 
5.96

>  <Assay Organism>  (360) 
nan

>  <Assay Tissue ChEMBL ID>  (360) 
nan

>  <Assay Tissue Name>  (360) 
nan

>  <Assay Cell Type>  (360) 
nan

>  <Assay Subcellular Fraction>  (360) 
nan

>  <Organism Tax ID>  (360) 
9606

>  <BAO Format ID>  (360) 
BAO_0000019

>  <Published Type>  (360) 
nan

>  <Published Relation>  (360) 
nan

>  <Published Value>  (360) 
nan

>  <Published Units>  (360) 
nan

>  <Canonical Smiles>  (360) 
CCN(CC)CCCNC(=O)c1cnc(N)c2c(csc12)c3ccc(NC(=O)Nc4cccc(C)c4)cc3

>  <Data Validity Comment>  (360) 
nan

>  <Document Journal>  (360) 
nan

>  <Document Year>  (360) 
nan

>  <SRC ID>  (360) 
7

>  <UO Units>  (360) 
UO_0000065

>  <Potential Duplicate>  (360) 
False

>  <Class>  (360) 
0

$$$$

     RDKit          2D

 16 17  0  0  0  0  0  0  0  0999 V2000
   -2.5981   -9.6073    0.0000 C   0  0  0  0  0  0  0  0  0  0  0  0
   -2.5981   -8.1073    0.0000 C   0  0  0  0  0  0  0  0  0  0  0  0
   -1.2990   -7.3573    0.0000 O   0  0  0  0  0  0  0  0  0  0  0  0
   -1.2990   -5.8573    0.0000 C   0  0  0  0  0  0  0  0  0  0  0  0
   -2.5981   -5.1073    0.0000 O   0  0  0  0  0  0  0  0  0  0  0  0
   -0.0000   -5.1073    0.0000 C   0  0  0  0  0  0  0  0  0  0  0  0
   -0.0000   -3.6073    0.0000 C   0  0  0  0  0  0  0  0  0  0  0  0
    1.2135   -2.7256    0.0000 N   0  0  0  0  0  0  0  0  0  0  0  0
    0.7500   -1.2990    0.0000 C   0  0  0  0  0  0  0  0  0  0  0  0
    1.5000    0.0000    0.0000 C   0  0  0  0  0  0  0  0  0  0  0  0
    3.0000    0.0000    0.0000 N   0  0  0  0  0  0  0  0  0  0  0  0
    0.7500    1.2990    0.0000 C   0  0  0  0  0  0  0  0  0  0  0  0
   -0.7500    1.2990    0.0000 C   0  0  0  0  0  0  0  0  0  0  0  0
   -1.5000    0.0000    0.0000 C   0  0  0  0  0  0  0  0  0  0  0  0
   -0.7500   -1.2990    0.0000 C   0  0  0  0  0  0  0  0  0  0  0  0
   -1.2135   -2.7256    0.0000 N   0  0  0  0  0  0  0  0  0  0  0  0
  1  2  1  0
  2  3  1  0
  3  4  1  0
  4  5  2  0
  4  6  1  0
  6  7  1  0
  7  8  2  0
  8  9  1  0
  9 10  2  0
 10 11  1  0
 10 12  1  0
 12 13  2  0
 13 14  1  0
 14 15  2  0
 15 16  1  0
 16  7  1  0
 15  9  1  0
M  END
>  <Molecule>  (361) 
CHEMBL1981671

>  <Standard Type>  (361) 
Ki

>  <Standard Relation>  (361) 
>

>  <Standard Value>  (361) 
5011.87

>  <Standard Units>  (361) 
nM

>  <pChEMBL Value>  (361) 
nan

>  <Comment>  (361) 
inactive

>  <Compound Key>  (361) 
SID103904927

>  <Assay>  (361) 
CHEMBL1963742

>  <Assay Description>  (361) 
PUBCHEM_BIOASSAY: Navigating the Kinome. (Class of assay: other) Panel member name: JAK3

>  <BAO Format>  (361) 
assay format

>  <Target>  (361) 
CHEMBL2148

>  <Target Pref. Name>  (361) 
Tyrosine-protein kinase JAK3

>  <Target Organism>  (361) 
Homo sapiens

>  <Target Type>  (361) 
SINGLE PROTEIN

>  <Document>  (361) 
CHEMBL1201862

>  <Source>  (361) 
PubChem BioAssays

>  <Max Phase>  (361) 
0

>  <#Ro5 Violations>  (361) 
0

>  <Molecular Weight>  (361) 
219.24

>  <Ligand Efficiency BEI>  (361) 
nan

>  <Ligand Efficiency LE>  (361) 
nan

>  <Ligand Efficiency LLE>  (361) 
nan

>  <Ligand Efficiency SEI>  (361) 
nan

>  <ALogP>  (361) 
1.25

>  <Assay Organism>  (361) 
nan

>  <Assay Tissue ChEMBL ID>  (361) 
nan

>  <Assay Tissue Name>  (361) 
nan

>  <Assay Cell Type>  (361) 
nan

>  <Assay Subcellular Fraction>  (361) 
nan

>  <Organism Tax ID>  (361) 
9606

>  <BAO Format ID>  (361) 
BAO_0000019

>  <Published Type>  (361) 
nan

>  <Published Relation>  (361) 
nan

>  <Published Value>  (361) 
nan

>  <Published Units>  (361) 
nan

>  <Canonical Smiles>  (361) 
CCOC(=O)Cc1nc2c(N)cccc2[nH]1

>  <Data Validity Comment>  (361) 
nan

>  <Document Journal>  (361) 
nan

>  <Document Year>  (361) 
nan

>  <SRC ID>  (361) 
7

>  <UO Units>  (361) 
UO_0000065

>  <Potential Duplicate>  (361) 
False

>  <Class>  (361) 
0

$$$$

     RDKit          2D

 28 30  0  0  0  0  0  0  0  0999 V2000
    9.0000    0.0000    0.0000 F   0  0  0  0  0  0  0  0  0  0  0  0
    8.2500   -1.2990    0.0000 C   0  0  0  0  0  0  0  0  0  0  0  0
    9.5490   -2.0490    0.0000 F   0  0  0  0  0  0  0  0  0  0  0  0
    6.9510   -0.5490    0.0000 F   0  0  0  0  0  0  0  0  0  0  0  0
    7.5000   -2.5981    0.0000 C   0  0  0  0  0  0  0  0  0  0  0  0
    8.2500   -3.8971    0.0000 C   0  0  0  0  0  0  0  0  0  0  0  0
    7.5000   -5.1962    0.0000 C   0  0  0  0  0  0  0  0  0  0  0  0
    6.0000   -5.1962    0.0000 C   0  0  0  0  0  0  0  0  0  0  0  0
    5.2500   -3.8971    0.0000 C   0  0  0  0  0  0  0  0  0  0  0  0
    3.7500   -3.8971    0.0000 N   0  0  0  0  0  0  0  0  0  0  0  0
    3.0000   -2.5981    0.0000 C   0  0  0  0  0  0  0  0  0  0  0  0
    3.7500   -1.2990    0.0000 O   0  0  0  0  0  0  0  0  0  0  0  0
    1.5000   -2.5981    0.0000 N   0  0  0  0  0  0  0  0  0  0  0  0
    0.7500   -1.2990    0.0000 C   0  0  0  0  0  0  0  0  0  0  0  0
    1.5000    0.0000    0.0000 C   0  0  0  0  0  0  0  0  0  0  0  0
    0.7500    1.2990    0.0000 C   0  0  0  0  0  0  0  0  0  0  0  0
   -0.7500    1.2990    0.0000 N   0  0  0  0  0  0  0  0  0  0  0  0
   -1.5000    0.0000    0.0000 C   0  0  0  0  0  0  0  0  0  0  0  0
   -3.0000    0.0000    0.0000 C   0  0  0  0  0  0  0  0  0  0  0  0
   -3.7500   -1.2990    0.0000 C   0  0  0  0  0  0  0  0  0  0  0  0
   -3.0000   -2.5981    0.0000 C   0  0  0  0  0  0  0  0  0  0  0  0
   -1.5000   -2.5981    0.0000 C   0  0  0  0  0  0  0  0  0  0  0  0
   -0.7500   -1.2990    0.0000 C   0  0  0  0  0  0  0  0  0  0  0  0
   -3.7500    1.2990    0.0000 C   0  0  0  0  0  0  0  0  0  0  0  0
   -4.5000    2.5981    0.0000 F   0  0  0  0  0  0  0  0  0  0  0  0
   -5.0490    0.5490    0.0000 F   0  0  0  0  0  0  0  0  0  0  0  0
   -2.4510    2.0490    0.0000 F   0  0  0  0  0  0  0  0  0  0  0  0
    6.0000   -2.5981    0.0000 N   0  0  0  0  0  0  0  0  0  0  0  0
  1  2  1  0
  2  3  1  0
  2  4  1  0
  2  5  1  0
  5  6  2  0
  6  7  1  0
  7  8  2  0
  8  9  1  0
  9 10  1  0
 10 11  1  0
 11 12  2  0
 11 13  1  0
 13 14  1  0
 14 15  2  0
 15 16  1  0
 16 17  2  0
 17 18  1  0
 18 19  2  0
 19 20  1  0
 20 21  2  0
 21 22  1  0
 22 23  2  0
 19 24  1  0
 24 25  1  0
 24 26  1  0
 24 27  1  0
  9 28  2  0
 28  5  1  0
 23 14  1  0
 23 18  1  0
M  END
>  <Molecule>  (362) 
CHEMBL1980142

>  <Standard Type>  (362) 
Ki

>  <Standard Relation>  (362) 
>

>  <Standard Value>  (362) 
1584.89

>  <Standard Units>  (362) 
nM

>  <pChEMBL Value>  (362) 
nan

>  <Comment>  (362) 
inactive

>  <Compound Key>  (362) 
SID103904901

>  <Assay>  (362) 
CHEMBL1963742

>  <Assay Description>  (362) 
PUBCHEM_BIOASSAY: Navigating the Kinome. (Class of assay: other) Panel member name: JAK3

>  <BAO Format>  (362) 
assay format

>  <Target>  (362) 
CHEMBL2148

>  <Target Pref. Name>  (362) 
Tyrosine-protein kinase JAK3

>  <Target Organism>  (362) 
Homo sapiens

>  <Target Type>  (362) 
SINGLE PROTEIN

>  <Document>  (362) 
CHEMBL1201862

>  <Source>  (362) 
PubChem BioAssays

>  <Max Phase>  (362) 
0

>  <#Ro5 Violations>  (362) 
1

>  <Molecular Weight>  (362) 
400.28

>  <Ligand Efficiency BEI>  (362) 
nan

>  <Ligand Efficiency LE>  (362) 
nan

>  <Ligand Efficiency LLE>  (362) 
nan

>  <Ligand Efficiency SEI>  (362) 
nan

>  <ALogP>  (362) 
5.31

>  <Assay Organism>  (362) 
nan

>  <Assay Tissue ChEMBL ID>  (362) 
nan

>  <Assay Tissue Name>  (362) 
nan

>  <Assay Cell Type>  (362) 
nan

>  <Assay Subcellular Fraction>  (362) 
nan

>  <Organism Tax ID>  (362) 
9606

>  <BAO Format ID>  (362) 
BAO_0000019

>  <Published Type>  (362) 
nan

>  <Published Relation>  (362) 
nan

>  <Published Value>  (362) 
nan

>  <Published Units>  (362) 
nan

>  <Canonical Smiles>  (362) 
FC(F)(F)c1cccc(NC(=O)Nc2ccnc3c(cccc23)C(F)(F)F)n1

>  <Data Validity Comment>  (362) 
nan

>  <Document Journal>  (362) 
nan

>  <Document Year>  (362) 
nan

>  <SRC ID>  (362) 
7

>  <UO Units>  (362) 
UO_0000065

>  <Potential Duplicate>  (362) 
False

>  <Class>  (362) 
0

$$$$

     RDKit          2D

 25 28  0  0  0  0  0  0  0  0999 V2000
    3.7500   -1.2990    0.0000 C   0  0  0  0  0  0  0  0  0  0  0  0
    3.0000    0.0000    0.0000 O   0  0  0  0  0  0  0  0  0  0  0  0
    1.5000    0.0000    0.0000 C   0  0  0  0  0  0  0  0  0  0  0  0
    0.7500   -1.2990    0.0000 C   0  0  0  0  0  0  0  0  0  0  0  0
   -0.7500   -1.2990    0.0000 C   0  0  0  0  0  0  0  0  0  0  0  0
   -1.5000    0.0000    0.0000 C   0  0  0  0  0  0  0  0  0  0  0  0
   -0.7500    1.2990    0.0000 C   0  0  0  0  0  0  0  0  0  0  0  0
   -1.6852    2.4718    0.0000 N   0  0  0  0  0  0  0  0  0  0  0  0
   -1.3515    3.9342    0.0000 C   0  0  0  0  0  0  0  0  0  0  0  0
   -2.5242    4.8694    0.0000 O   0  0  0  0  0  0  0  0  0  0  0  0
    0.0000    4.5850    0.0000 C   0  0  0  0  0  0  0  0  0  0  0  0
   -0.1121    6.0808    0.0000 C   0  0  0  0  0  0  0  0  0  0  0  0
    1.1273    6.9258    0.0000 C   0  0  0  0  0  0  0  0  0  0  0  0
    2.4787    6.2750    0.0000 C   0  0  0  0  0  0  0  0  0  0  0  0
    3.7181    7.1199    0.0000 N   0  0  0  0  0  0  0  0  0  0  0  0
    5.0695    6.4691    0.0000 C   0  0  0  0  0  0  0  0  0  0  0  0
    5.1816    4.9733    0.0000 C   0  0  0  0  0  0  0  0  0  0  0  0
    6.5331    4.3225    0.0000 C   0  0  0  0  0  0  0  0  0  0  0  0
    7.7724    5.1675    0.0000 N   0  0  0  0  0  0  0  0  0  0  0  0
    7.6603    6.6633    0.0000 C   0  0  0  0  0  0  0  0  0  0  0  0
    6.3089    7.3141    0.0000 C   0  0  0  0  0  0  0  0  0  0  0  0
    2.5908    4.7792    0.0000 C   0  0  0  0  0  0  0  0  0  0  0  0
    1.3515    3.9342    0.0000 C   0  0  0  0  0  0  0  0  0  0  0  0
    1.6852    2.4718    0.0000 N   0  0  0  0  0  0  0  0  0  0  0  0
    0.7500    1.2990    0.0000 C   0  0  0  0  0  0  0  0  0  0  0  0
  1  2  1  0
  2  3  1  0
  3  4  2  0
  4  5  1  0
  5  6  2  0
  6  7  1  0
  7  8  1  0
  8  9  1  0
  9 10  2  0
  9 11  1  0
 11 12  2  0
 12 13  1  0
 13 14  2  0
 14 15  1  0
 15 16  1  0
 16 17  2  0
 17 18  1  0
 18 19  2  0
 19 20  1  0
 20 21  2  0
 14 22  1  0
 22 23  2  0
 23 24  1  0
 24 25  1  0
 25  3  1  0
 25  7  2  0
 23 11  1  0
 21 16  1  0
M  END
>  <Molecule>  (363) 
CHEMBL2006276

>  <Standard Type>  (363) 
Ki

>  <Standard Relation>  (363) 
>

>  <Standard Value>  (363) 
1584.89

>  <Standard Units>  (363) 
nM

>  <pChEMBL Value>  (363) 
nan

>  <Comment>  (363) 
inactive

>  <Compound Key>  (363) 
SID103904673

>  <Assay>  (363) 
CHEMBL1963742

>  <Assay Description>  (363) 
PUBCHEM_BIOASSAY: Navigating the Kinome. (Class of assay: other) Panel member name: JAK3

>  <BAO Format>  (363) 
assay format

>  <Target>  (363) 
CHEMBL2148

>  <Target Pref. Name>  (363) 
Tyrosine-protein kinase JAK3

>  <Target Organism>  (363) 
Homo sapiens

>  <Target Type>  (363) 
SINGLE PROTEIN

>  <Document>  (363) 
CHEMBL1201862

>  <Source>  (363) 
PubChem BioAssays

>  <Max Phase>  (363) 
0

>  <#Ro5 Violations>  (363) 
0

>  <Molecular Weight>  (363) 
332.36

>  <Ligand Efficiency BEI>  (363) 
nan

>  <Ligand Efficiency LE>  (363) 
nan

>  <Ligand Efficiency LLE>  (363) 
nan

>  <Ligand Efficiency SEI>  (363) 
nan

>  <ALogP>  (363) 
4.14

>  <Assay Organism>  (363) 
nan

>  <Assay Tissue ChEMBL ID>  (363) 
nan

>  <Assay Tissue Name>  (363) 
nan

>  <Assay Cell Type>  (363) 
nan

>  <Assay Subcellular Fraction>  (363) 
nan

>  <Organism Tax ID>  (363) 
9606

>  <BAO Format ID>  (363) 
BAO_0000019

>  <Published Type>  (363) 
nan

>  <Published Relation>  (363) 
nan

>  <Published Value>  (363) 
nan

>  <Published Units>  (363) 
nan

>  <Canonical Smiles>  (363) 
COc1cccc2NC(=O)c3ccc(Nc4ccncc4)cc3Nc12

>  <Data Validity Comment>  (363) 
nan

>  <Document Journal>  (363) 
nan

>  <Document Year>  (363) 
nan

>  <SRC ID>  (363) 
7

>  <UO Units>  (363) 
UO_0000065

>  <Potential Duplicate>  (363) 
False

>  <Class>  (363) 
0

$$$$

     RDKit          2D

 20 22  0  0  0  0  0  0  0  0999 V2000
    3.7500   -1.2990    0.0000 N   0  0  0  0  0  0  0  0  0  0  0  0
    3.0000    0.0000    0.0000 C   0  0  0  0  0  0  0  0  0  0  0  0
    3.7500    1.2990    0.0000 O   0  0  0  0  0  0  0  0  0  0  0  0
    1.5000    0.0000    0.0000 C   0  0  0  0  0  0  0  0  0  0  0  0
    0.7500   -1.2990    0.0000 C   0  0  0  0  0  0  0  0  0  0  0  0
   -0.7500   -1.2990    0.0000 C   0  0  0  0  0  0  0  0  0  0  0  0
   -1.5000    0.0000    0.0000 C   0  0  0  0  0  0  0  0  0  0  0  0
   -2.9672    0.3119    0.0000 N   0  0  0  0  0  0  0  0  0  0  0  0
   -3.1240    1.8037    0.0000 C   0  0  0  0  0  0  0  0  0  0  0  0
   -1.7537    2.4138    0.0000 C   0  0  0  0  0  0  0  0  0  0  0  0
   -0.7500    1.2990    0.0000 N   0  0  0  0  0  0  0  0  0  0  0  0
    0.7500    1.2990    0.0000 C   0  0  0  0  0  0  0  0  0  0  0  0
   -4.4231    2.5537    0.0000 C   0  0  0  0  0  0  0  0  0  0  0  0
   -5.7934    1.9435    0.0000 O   0  0  0  0  0  0  0  0  0  0  0  0
   -6.7971    3.0583    0.0000 C   0  0  0  0  0  0  0  0  0  0  0  0
   -6.0471    4.3573    0.0000 C   0  0  0  0  0  0  0  0  0  0  0  0
   -4.5798    4.0454    0.0000 C   0  0  0  0  0  0  0  0  0  0  0  0
   -8.2888    2.9015    0.0000 N   0  0  0  0  0  0  0  0  0  0  0  0
   -8.8990    1.5312    0.0000 O   0  0  0  0  0  0  0  0  0  0  0  0
   -9.1705    4.1150    0.0000 O   0  0  0  0  0  0  0  0  0  0  0  0
  1  2  1  0
  2  3  2  0
  2  4  1  0
  4  5  1  0
  5  6  2  0
  6  7  1  0
  7  8  2  0
  8  9  1  0
  9 10  2  0
 10 11  1  0
 11 12  1  0
  9 13  1  0
 13 14  1  0
 14 15  1  0
 15 16  2  0
 16 17  1  0
 15 18  1  0
 18 19  2  0
 18 20  1  0
 12  4  2  0
 11  7  1  0
 17 13  2  0
M  CHG  2  18   1  20  -1
M  END
>  <Molecule>  (364) 
CHEMBL1973359

>  <Standard Type>  (364) 
Ki

>  <Standard Relation>  (364) 
=

>  <Standard Value>  (364) 
794.33

>  <Standard Units>  (364) 
nM

>  <pChEMBL Value>  (364) 
6.1

>  <Comment>  (364) 
active

>  <Compound Key>  (364) 
SID103905668

>  <Assay>  (364) 
CHEMBL1963742

>  <Assay Description>  (364) 
PUBCHEM_BIOASSAY: Navigating the Kinome. (Class of assay: other) Panel member name: JAK3

>  <BAO Format>  (364) 
assay format

>  <Target>  (364) 
CHEMBL2148

>  <Target Pref. Name>  (364) 
Tyrosine-protein kinase JAK3

>  <Target Organism>  (364) 
Homo sapiens

>  <Target Type>  (364) 
SINGLE PROTEIN

>  <Document>  (364) 
CHEMBL1201862

>  <Source>  (364) 
PubChem BioAssays

>  <Max Phase>  (364) 
0

>  <#Ro5 Violations>  (364) 
0

>  <Molecular Weight>  (364) 
272.22

>  <Ligand Efficiency BEI>  (364) 
nan

>  <Ligand Efficiency LE>  (364) 
nan

>  <Ligand Efficiency LLE>  (364) 
nan

>  <Ligand Efficiency SEI>  (364) 
nan

>  <ALogP>  (364) 
1.6

>  <Assay Organism>  (364) 
nan

>  <Assay Tissue ChEMBL ID>  (364) 
nan

>  <Assay Tissue Name>  (364) 
nan

>  <Assay Cell Type>  (364) 
nan

>  <Assay Subcellular Fraction>  (364) 
nan

>  <Organism Tax ID>  (364) 
9606

>  <BAO Format ID>  (364) 
BAO_0000019

>  <Published Type>  (364) 
nan

>  <Published Relation>  (364) 
nan

>  <Published Value>  (364) 
nan

>  <Published Units>  (364) 
nan

>  <Canonical Smiles>  (364) 
NC(=O)c1ccc2nc(cn2c1)c3oc(cc3)[N+](=O)[O-]

>  <Data Validity Comment>  (364) 
nan

>  <Document Journal>  (364) 
nan

>  <Document Year>  (364) 
nan

>  <SRC ID>  (364) 
7

>  <UO Units>  (364) 
UO_0000065

>  <Potential Duplicate>  (364) 
False

>  <Class>  (364) 
1

$$$$

     RDKit          2D

 30 33  0  0  0  0  0  0  0  0999 V2000
    3.0000    0.0000    0.0000 C   0  0  0  0  0  0  0  0  0  0  0  0
    1.5000    0.0000    0.0000 C   0  0  0  0  0  0  0  0  0  0  0  0
    0.7500   -1.2990    0.0000 N   0  0  0  0  0  0  0  0  0  0  0  0
   -0.7500   -1.2990    0.0000 C   0  0  0  0  0  0  0  0  0  0  0  0
   -1.5000    0.0000    0.0000 C   0  0  0  0  0  0  0  0  0  0  0  0
   -0.7500    1.2990    0.0000 N   0  0  0  0  0  0  0  0  0  0  0  0
   -1.2135    2.7256    0.0000 C   0  0  0  0  0  0  0  0  0  0  0  0
   -2.6401    3.1891    0.0000 C   0  0  0  0  0  0  0  0  0  0  0  0
   -2.9520    4.6564    0.0000 C   0  0  0  0  0  0  0  0  0  0  0  0
   -4.3786    5.1199    0.0000 C   0  0  0  0  0  0  0  0  0  0  0  0
   -5.4933    4.1162    0.0000 N   0  0  0  0  0  0  0  0  0  0  0  0
   -5.1814    2.6490    0.0000 C   0  0  0  0  0  0  0  0  0  0  0  0
   -6.2961    1.6453    0.0000 N   0  0  0  0  0  0  0  0  0  0  0  0
   -7.7227    2.1088    0.0000 C   0  0  0  0  0  0  0  0  0  0  0  0
   -8.8374    1.1051    0.0000 C   0  0  0  0  0  0  0  0  0  0  0  0
   -7.8337   -0.0096    0.0000 C   0  0  0  0  0  0  0  0  0  0  0  0
   -9.8411    2.2198    0.0000 C   0  0  0  0  0  0  0  0  0  0  0  0
   -9.9521    0.1014    0.0000 C   0  0  0  0  0  0  0  0  0  0  0  0
   -9.6403   -1.3658    0.0000 O   0  0  0  0  0  0  0  0  0  0  0  0
   -3.7548    2.1855    0.0000 N   0  0  0  0  0  0  0  0  0  0  0  0
   -0.0000    3.6073    0.0000 C   0  0  0  0  0  0  0  0  0  0  0  0
    1.2135    2.7256    0.0000 N   0  0  0  0  0  0  0  0  0  0  0  0
    0.7500    1.2990    0.0000 C   0  0  0  0  0  0  0  0  0  0  0  0
   -0.0000    5.1073    0.0000 C   0  0  0  0  0  0  0  0  0  0  0  0
    1.2990    5.8573    0.0000 C   0  0  0  0  0  0  0  0  0  0  0  0
    1.2990    7.3573    0.0000 C   0  0  0  0  0  0  0  0  0  0  0  0
   -0.0000    8.1073    0.0000 C   0  0  0  0  0  0  0  0  0  0  0  0
   -0.0000    9.6073    0.0000 F   0  0  0  0  0  0  0  0  0  0  0  0
   -1.2990    7.3573    0.0000 C   0  0  0  0  0  0  0  0  0  0  0  0
   -1.2990    5.8573    0.0000 C   0  0  0  0  0  0  0  0  0  0  0  0
  1  2  1  0
  2  3  2  0
  3  4  1  0
  4  5  2  0
  5  6  1  0
  6  7  1  0
  7  8  1  0
  8  9  2  0
  9 10  1  0
 10 11  2  0
 11 12  1  0
 12 13  1  0
 13 14  1  0
 14 15  1  0
 15 16  1  0
 15 17  1  0
 15 18  1  0
 18 19  1  0
 12 20  2  0
  7 21  2  0
 21 22  1  0
 22 23  2  0
 21 24  1  0
 24 25  2  0
 25 26  1  0
 26 27  2  0
 27 28  1  0
 27 29  1  0
 29 30  2  0
 23  2  1  0
 23  6  1  0
 20  8  1  0
 30 24  1  0
M  END
>  <Molecule>  (365) 
CHEMBL1987648

>  <Standard Type>  (365) 
Ki

>  <Standard Relation>  (365) 
>

>  <Standard Value>  (365) 
1584.89

>  <Standard Units>  (365) 
nM

>  <pChEMBL Value>  (365) 
nan

>  <Comment>  (365) 
inactive

>  <Compound Key>  (365) 
SID103904778

>  <Assay>  (365) 
CHEMBL1963742

>  <Assay Description>  (365) 
PUBCHEM_BIOASSAY: Navigating the Kinome. (Class of assay: other) Panel member name: JAK3

>  <BAO Format>  (365) 
assay format

>  <Target>  (365) 
CHEMBL2148

>  <Target Pref. Name>  (365) 
Tyrosine-protein kinase JAK3

>  <Target Organism>  (365) 
Homo sapiens

>  <Target Type>  (365) 
SINGLE PROTEIN

>  <Document>  (365) 
CHEMBL1201862

>  <Source>  (365) 
PubChem BioAssays

>  <Max Phase>  (365) 
0

>  <#Ro5 Violations>  (365) 
0

>  <Molecular Weight>  (365) 
406.47

>  <Ligand Efficiency BEI>  (365) 
nan

>  <Ligand Efficiency LE>  (365) 
nan

>  <Ligand Efficiency LLE>  (365) 
nan

>  <Ligand Efficiency SEI>  (365) 
nan

>  <ALogP>  (365) 
3.73

>  <Assay Organism>  (365) 
nan

>  <Assay Tissue ChEMBL ID>  (365) 
nan

>  <Assay Tissue Name>  (365) 
nan

>  <Assay Cell Type>  (365) 
nan

>  <Assay Subcellular Fraction>  (365) 
nan

>  <Organism Tax ID>  (365) 
9606

>  <BAO Format ID>  (365) 
BAO_0000019

>  <Published Type>  (365) 
nan

>  <Published Relation>  (365) 
nan

>  <Published Value>  (365) 
nan

>  <Published Units>  (365) 
nan

>  <Canonical Smiles>  (365) 
Cc1nccn2c(c3ccnc(NCC(C)(C)CO)n3)c(nc12)c4ccc(F)cc4

>  <Data Validity Comment>  (365) 
nan

>  <Document Journal>  (365) 
nan

>  <Document Year>  (365) 
nan

>  <SRC ID>  (365) 
7

>  <UO Units>  (365) 
UO_0000065

>  <Potential Duplicate>  (365) 
False

>  <Class>  (365) 
0

$$$$

     RDKit          2D

 29 32  0  0  0  0  0  0  0  0999 V2000
    3.5260    1.2990    0.0000 C   0  0  0  0  0  0  0  0  0  0  0  0
    2.7760    0.0000    0.0000 C   0  0  0  0  0  0  0  0  0  0  0  0
    1.2760    0.0000    0.0000 C   0  0  0  0  0  0  0  0  0  0  0  0
    0.3943    1.2135    0.0000 C   0  0  0  0  0  0  0  0  0  0  0  0
   -1.0323    0.7500    0.0000 N   0  0  0  0  0  0  0  0  0  0  0  0
   -1.0323   -0.7500    0.0000 N   0  0  0  0  0  0  0  0  0  0  0  0
   -2.1470   -1.7537    0.0000 C   0  0  0  0  0  0  0  0  0  0  0  0
   -3.5736   -1.2902    0.0000 N   0  0  0  0  0  0  0  0  0  0  0  0
   -4.6883   -2.2939    0.0000 C   0  0  0  0  0  0  0  0  0  0  0  0
   -6.1149   -1.8303    0.0000 C   0  0  0  0  0  0  0  0  0  0  0  0
   -6.4268   -0.3631    0.0000 C   0  0  0  0  0  0  0  0  0  0  0  0
   -7.8533    0.1004    0.0000 C   0  0  0  0  0  0  0  0  0  0  0  0
   -8.9681   -0.9033    0.0000 C   0  0  0  0  0  0  0  0  0  0  0  0
   -8.6562   -2.3705    0.0000 N   0  0  0  0  0  0  0  0  0  0  0  0
   -9.7709   -3.3742    0.0000 O   0  0  0  0  0  0  0  0  0  0  0  0
   -7.2296   -2.8340    0.0000 C   0  0  0  0  0  0  0  0  0  0  0  0
   -1.8351   -3.2209    0.0000 C   0  0  0  0  0  0  0  0  0  0  0  0
   -0.4086   -3.6844    0.0000 C   0  0  0  0  0  0  0  0  0  0  0  0
    0.7062   -2.6807    0.0000 N   0  0  0  0  0  0  0  0  0  0  0  0
    0.3943   -1.2135    0.0000 C   0  0  0  0  0  0  0  0  0  0  0  0
   -0.0967   -5.1517    0.0000 N   0  0  0  0  0  0  0  0  0  0  0  0
   -1.2114   -6.1554    0.0000 C   0  0  0  0  0  0  0  0  0  0  0  0
   -0.8995   -7.6226    0.0000 C   0  0  0  0  0  0  0  0  0  0  0  0
    0.5271   -8.0861    0.0000 C   0  0  0  0  0  0  0  0  0  0  0  0
    1.6418   -7.0824    0.0000 C   0  0  0  0  0  0  0  0  0  0  0  0
    1.3299   -5.6152    0.0000 C   0  0  0  0  0  0  0  0  0  0  0  0
    2.4446   -4.6115    0.0000 C   0  0  0  0  0  0  0  0  0  0  0  0
    3.8712   -5.0750    0.0000 C   0  0  0  0  0  0  0  0  0  0  0  0
    4.9859   -4.0713    0.0000 O   0  0  0  0  0  0  0  0  0  0  0  0
  1  2  1  0
  2  3  1  0
  3  4  1  0
  4  5  2  0
  5  6  1  0
  6  7  1  0
  7  8  1  0
  8  9  1  0
  9 10  1  0
 10 11  2  0
 11 12  1  0
 12 13  2  0
 13 14  1  0
 14 15  1  0
 14 16  2  0
  7 17  2  0
 17 18  1  0
 18 19  2  0
 19 20  1  0
 18 21  1  0
 21 22  1  0
 22 23  1  0
 23 24  1  0
 24 25  1  0
 25 26  1  0
 26 27  1  0
 27 28  1  0
 28 29  1  0
 20  3  2  0
 20  6  1  0
 16 10  1  0
 26 21  1  0
M  CHG  2  14   1  15  -1
M  END
>  <Molecule>  (366) 
CHEMBL2006674

>  <Standard Type>  (366) 
Ki

>  <Standard Relation>  (366) 
>

>  <Standard Value>  (366) 
5011.87

>  <Standard Units>  (366) 
nM

>  <pChEMBL Value>  (366) 
nan

>  <Comment>  (366) 
inactive

>  <Compound Key>  (366) 
SID103905679

>  <Assay>  (366) 
CHEMBL1963742

>  <Assay Description>  (366) 
PUBCHEM_BIOASSAY: Navigating the Kinome. (Class of assay: other) Panel member name: JAK3

>  <BAO Format>  (366) 
assay format

>  <Target>  (366) 
CHEMBL2148

>  <Target Pref. Name>  (366) 
Tyrosine-protein kinase JAK3

>  <Target Organism>  (366) 
Homo sapiens

>  <Target Type>  (366) 
SINGLE PROTEIN

>  <Document>  (366) 
CHEMBL1201862

>  <Source>  (366) 
PubChem BioAssays

>  <Max Phase>  (366) 
0

>  <#Ro5 Violations>  (366) 
0

>  <Molecular Weight>  (366) 
396.5

>  <Ligand Efficiency BEI>  (366) 
nan

>  <Ligand Efficiency LE>  (366) 
nan

>  <Ligand Efficiency LLE>  (366) 
nan

>  <Ligand Efficiency SEI>  (366) 
nan

>  <ALogP>  (366) 
2.28

>  <Assay Organism>  (366) 
nan

>  <Assay Tissue ChEMBL ID>  (366) 
nan

>  <Assay Tissue Name>  (366) 
nan

>  <Assay Cell Type>  (366) 
nan

>  <Assay Subcellular Fraction>  (366) 
nan

>  <Organism Tax ID>  (366) 
9606

>  <BAO Format ID>  (366) 
BAO_0000019

>  <Published Type>  (366) 
nan

>  <Published Relation>  (366) 
nan

>  <Published Value>  (366) 
nan

>  <Published Units>  (366) 
nan

>  <Canonical Smiles>  (366) 
CCc1cnn2c(NCc3ccc[n+]([O-])c3)cc(nc12)N4CCCCC4CCO

>  <Data Validity Comment>  (366) 
nan

>  <Document Journal>  (366) 
nan

>  <Document Year>  (366) 
nan

>  <SRC ID>  (366) 
7

>  <UO Units>  (366) 
UO_0000065

>  <Potential Duplicate>  (366) 
False

>  <Class>  (366) 
0

$$$$

     RDKit          2D

 12 14  0  0  0  0  0  0  0  0999 V2000
   -0.4086    3.6844    0.0000 C   0  0  0  0  0  0  0  0  0  0  0  0
    0.7062    2.6807    0.0000 C   0  0  0  0  0  0  0  0  0  0  0  0
    0.3943    1.2135    0.0000 C   0  0  0  0  0  0  0  0  0  0  0  0
    1.2760    0.0000    0.0000 S   0  0  0  0  0  0  0  0  0  0  0  0
    0.3943   -1.2135    0.0000 C   0  0  0  0  0  0  0  0  0  0  0  0
   -1.0323   -0.7500    0.0000 C   0  0  0  0  0  0  0  0  0  0  0  0
   -1.0323    0.7500    0.0000 C   0  0  0  0  0  0  0  0  0  0  0  0
   -2.1470    1.7537    0.0000 C   0  0  0  0  0  0  0  0  0  0  0  0
   -3.6388    1.5969    0.0000 N   0  0  0  0  0  0  0  0  0  0  0  0
   -4.2489    2.9672    0.0000 N   0  0  0  0  0  0  0  0  0  0  0  0
   -3.1342    3.9709    0.0000 C   0  0  0  0  0  0  0  0  0  0  0  0
   -1.8351    3.2209    0.0000 C   0  0  0  0  0  0  0  0  0  0  0  0
  1  2  1  0
  2  3  1  0
  3  4  1  0
  4  5  1  0
  5  6  2  0
  6  7  1  0
  7  8  1  0
  8  9  1  0
  9 10  1  0
 10 11  2  0
 11 12  1  0
 12  1  1  0
  7  3  2  0
 12  8  2  0
M  END
>  <Molecule>  (367) 
CHEMBL2001539

>  <Standard Type>  (367) 
Ki

>  <Standard Relation>  (367) 
>

>  <Standard Value>  (367) 
15848.93

>  <Standard Units>  (367) 
nM

>  <pChEMBL Value>  (367) 
nan

>  <Comment>  (367) 
inactive

>  <Compound Key>  (367) 
SID103905580

>  <Assay>  (367) 
CHEMBL1963742

>  <Assay Description>  (367) 
PUBCHEM_BIOASSAY: Navigating the Kinome. (Class of assay: other) Panel member name: JAK3

>  <BAO Format>  (367) 
assay format

>  <Target>  (367) 
CHEMBL2148

>  <Target Pref. Name>  (367) 
Tyrosine-protein kinase JAK3

>  <Target Organism>  (367) 
Homo sapiens

>  <Target Type>  (367) 
SINGLE PROTEIN

>  <Document>  (367) 
CHEMBL1201862

>  <Source>  (367) 
PubChem BioAssays

>  <Max Phase>  (367) 
0

>  <#Ro5 Violations>  (367) 
0

>  <Molecular Weight>  (367) 
176.24

>  <Ligand Efficiency BEI>  (367) 
nan

>  <Ligand Efficiency LE>  (367) 
nan

>  <Ligand Efficiency LLE>  (367) 
nan

>  <Ligand Efficiency SEI>  (367) 
nan

>  <ALogP>  (367) 
2.24

>  <Assay Organism>  (367) 
nan

>  <Assay Tissue ChEMBL ID>  (367) 
nan

>  <Assay Tissue Name>  (367) 
nan

>  <Assay Cell Type>  (367) 
nan

>  <Assay Subcellular Fraction>  (367) 
nan

>  <Organism Tax ID>  (367) 
9606

>  <BAO Format ID>  (367) 
BAO_0000019

>  <Published Type>  (367) 
nan

>  <Published Relation>  (367) 
nan

>  <Published Value>  (367) 
nan

>  <Published Units>  (367) 
nan

>  <Canonical Smiles>  (367) 
C1Cc2sccc2c3[nH]ncc13

>  <Data Validity Comment>  (367) 
nan

>  <Document Journal>  (367) 
nan

>  <Document Year>  (367) 
nan

>  <SRC ID>  (367) 
7

>  <UO Units>  (367) 
UO_0000065

>  <Potential Duplicate>  (367) 
False

>  <Class>  (367) 
0

$$$$

     RDKit          2D

 17 19  0  0  0  0  0  0  0  0999 V2000
   -7.2296    2.8340    0.0000 C   0  0  0  0  0  0  0  0  0  0  0  0
   -6.1149    1.8303    0.0000 C   0  0  0  0  0  0  0  0  0  0  0  0
   -4.6883    2.2939    0.0000 C   0  0  0  0  0  0  0  0  0  0  0  0
   -3.5736    1.2902    0.0000 C   0  0  0  0  0  0  0  0  0  0  0  0
   -3.8855   -0.1771    0.0000 C   0  0  0  0  0  0  0  0  0  0  0  0
   -5.3120   -0.6406    0.0000 C   0  0  0  0  0  0  0  0  0  0  0  0
   -6.4268    0.3631    0.0000 C   0  0  0  0  0  0  0  0  0  0  0  0
   -7.8533   -0.1004    0.0000 F   0  0  0  0  0  0  0  0  0  0  0  0
   -2.1470    1.7537    0.0000 C   0  0  0  0  0  0  0  0  0  0  0  0
   -1.8351    3.2209    0.0000 N   0  0  0  0  0  0  0  0  0  0  0  0
   -0.4086    3.6844    0.0000 C   0  0  0  0  0  0  0  0  0  0  0  0
    0.7062    2.6807    0.0000 N   0  0  0  0  0  0  0  0  0  0  0  0
    0.3943    1.2135    0.0000 C   0  0  0  0  0  0  0  0  0  0  0  0
    1.2760    0.0000    0.0000 N   0  0  0  0  0  0  0  0  0  0  0  0
    0.3943   -1.2135    0.0000 C   0  0  0  0  0  0  0  0  0  0  0  0
   -1.0323   -0.7500    0.0000 C   0  0  0  0  0  0  0  0  0  0  0  0
   -1.0323    0.7500    0.0000 C   0  0  0  0  0  0  0  0  0  0  0  0
  1  2  1  0
  2  3  2  0
  3  4  1  0
  4  5  2  0
  5  6  1  0
  6  7  2  0
  7  8  1  0
  4  9  1  0
  9 10  2  0
 10 11  1  0
 11 12  2  0
 12 13  1  0
 13 14  1  0
 14 15  1  0
 15 16  2  0
 16 17  1  0
  7  2  1  0
 17  9  1  0
 17 13  2  0
M  END
>  <Molecule>  (368) 
CHEMBL1997041

>  <Standard Type>  (368) 
Ki

>  <Standard Relation>  (368) 
=

>  <Standard Value>  (368) 
3981.07

>  <Standard Units>  (368) 
nM

>  <pChEMBL Value>  (368) 
5.4

>  <Comment>  (368) 
active

>  <Compound Key>  (368) 
SID103905275

>  <Assay>  (368) 
CHEMBL1963742

>  <Assay Description>  (368) 
PUBCHEM_BIOASSAY: Navigating the Kinome. (Class of assay: other) Panel member name: JAK3

>  <BAO Format>  (368) 
assay format

>  <Target>  (368) 
CHEMBL2148

>  <Target Pref. Name>  (368) 
Tyrosine-protein kinase JAK3

>  <Target Organism>  (368) 
Homo sapiens

>  <Target Type>  (368) 
SINGLE PROTEIN

>  <Document>  (368) 
CHEMBL1201862

>  <Source>  (368) 
PubChem BioAssays

>  <Max Phase>  (368) 
0

>  <#Ro5 Violations>  (368) 
0

>  <Molecular Weight>  (368) 
227.24

>  <Ligand Efficiency BEI>  (368) 
nan

>  <Ligand Efficiency LE>  (368) 
nan

>  <Ligand Efficiency LLE>  (368) 
nan

>  <Ligand Efficiency SEI>  (368) 
nan

>  <ALogP>  (368) 
3.07

>  <Assay Organism>  (368) 
nan

>  <Assay Tissue ChEMBL ID>  (368) 
nan

>  <Assay Tissue Name>  (368) 
nan

>  <Assay Cell Type>  (368) 
nan

>  <Assay Subcellular Fraction>  (368) 
nan

>  <Organism Tax ID>  (368) 
9606

>  <BAO Format ID>  (368) 
BAO_0000019

>  <Published Type>  (368) 
nan

>  <Published Relation>  (368) 
nan

>  <Published Value>  (368) 
nan

>  <Published Units>  (368) 
nan

>  <Canonical Smiles>  (368) 
Cc1cc(ccc1F)c2ncnc3[nH]ccc23

>  <Data Validity Comment>  (368) 
nan

>  <Document Journal>  (368) 
nan

>  <Document Year>  (368) 
nan

>  <SRC ID>  (368) 
7

>  <UO Units>  (368) 
UO_0000065

>  <Potential Duplicate>  (368) 
False

>  <Class>  (368) 
1

$$$$

     RDKit          2D

 27 30  0  0  0  0  0  0  0  0999 V2000
    3.0000  -10.3923    0.0000 O   0  0  0  0  0  0  0  0  0  0  0  0
    3.7500   -9.0933    0.0000 N   0  0  0  0  0  0  0  0  0  0  0  0
    5.2500   -9.0933    0.0000 O   0  0  0  0  0  0  0  0  0  0  0  0
    3.0000   -7.7942    0.0000 C   0  0  0  0  0  0  0  0  0  0  0  0
    1.5000   -7.7942    0.0000 C   0  0  0  0  0  0  0  0  0  0  0  0
    0.7500   -6.4952    0.0000 C   0  0  0  0  0  0  0  0  0  0  0  0
    1.5000   -5.1962    0.0000 C   0  0  0  0  0  0  0  0  0  0  0  0
    0.7500   -3.8971    0.0000 N   0  0  0  0  0  0  0  0  0  0  0  0
    1.5000   -2.5981    0.0000 C   0  0  0  0  0  0  0  0  0  0  0  0
    3.0000   -2.5981    0.0000 O   0  0  0  0  0  0  0  0  0  0  0  0
    0.7500   -1.2990    0.0000 N   0  0  0  0  0  0  0  0  0  0  0  0
    1.5000    0.0000    0.0000 C   0  0  0  0  0  0  0  0  0  0  0  0
    0.7500    1.2990    0.0000 C   0  0  0  0  0  0  0  0  0  0  0  0
   -0.7500    1.2990    0.0000 C   0  0  0  0  0  0  0  0  0  0  0  0
   -1.7537    2.4138    0.0000 N   0  0  0  0  0  0  0  0  0  0  0  0
   -3.1240    1.8037    0.0000 C   0  0  0  0  0  0  0  0  0  0  0  0
   -4.4943    2.4138    0.0000 C   0  0  0  0  0  0  0  0  0  0  0  0
   -4.6511    3.9055    0.0000 Cl  0  0  0  0  0  0  0  0  0  0  0  0
   -5.7079    1.5321    0.0000 C   0  0  0  0  0  0  0  0  0  0  0  0
   -5.5511    0.0403    0.0000 C   0  0  0  0  0  0  0  0  0  0  0  0
   -6.7646   -0.8414    0.0000 Cl  0  0  0  0  0  0  0  0  0  0  0  0
   -4.1807   -0.5698    0.0000 C   0  0  0  0  0  0  0  0  0  0  0  0
   -2.9672    0.3119    0.0000 C   0  0  0  0  0  0  0  0  0  0  0  0
   -1.5000    0.0000    0.0000 C   0  0  0  0  0  0  0  0  0  0  0  0
   -0.7500   -1.2990    0.0000 C   0  0  0  0  0  0  0  0  0  0  0  0
    3.0000   -5.1962    0.0000 C   0  0  0  0  0  0  0  0  0  0  0  0
    3.7500   -6.4952    0.0000 C   0  0  0  0  0  0  0  0  0  0  0  0
  1  2  1  0
  2  3  2  0
  2  4  1  0
  4  5  2  0
  5  6  1  0
  6  7  2  0
  7  8  1  0
  8  9  1  0
  9 10  2  0
  9 11  1  0
 11 12  1  0
 12 13  1  0
 13 14  1  0
 14 15  1  0
 15 16  1  0
 16 17  2  0
 17 18  1  0
 17 19  1  0
 19 20  2  0
 20 21  1  0
 20 22  1  0
 22 23  2  0
 23 24  1  0
 24 25  1  0
  7 26  1  0
 26 27  2  0
 27  4  1  0
 25 11  1  0
 24 14  2  0
 23 16  1  0
M  CHG  2   1  -1   2   1
M  END
>  <Molecule>  (369) 
CHEMBL1976196

>  <Standard Type>  (369) 
Ki

>  <Standard Relation>  (369) 
>

>  <Standard Value>  (369) 
5011.87

>  <Standard Units>  (369) 
nM

>  <pChEMBL Value>  (369) 
nan

>  <Comment>  (369) 
inactive

>  <Compound Key>  (369) 
SID103905631

>  <Assay>  (369) 
CHEMBL1963742

>  <Assay Description>  (369) 
PUBCHEM_BIOASSAY: Navigating the Kinome. (Class of assay: other) Panel member name: JAK3

>  <BAO Format>  (369) 
assay format

>  <Target>  (369) 
CHEMBL2148

>  <Target Pref. Name>  (369) 
Tyrosine-protein kinase JAK3

>  <Target Organism>  (369) 
Homo sapiens

>  <Target Type>  (369) 
SINGLE PROTEIN

>  <Document>  (369) 
CHEMBL1201862

>  <Source>  (369) 
PubChem BioAssays

>  <Max Phase>  (369) 
0

>  <#Ro5 Violations>  (369) 
0

>  <Molecular Weight>  (369) 
405.24

>  <Ligand Efficiency BEI>  (369) 
nan

>  <Ligand Efficiency LE>  (369) 
nan

>  <Ligand Efficiency LLE>  (369) 
nan

>  <Ligand Efficiency SEI>  (369) 
nan

>  <ALogP>  (369) 
4.97

>  <Assay Organism>  (369) 
nan

>  <Assay Tissue ChEMBL ID>  (369) 
nan

>  <Assay Tissue Name>  (369) 
nan

>  <Assay Cell Type>  (369) 
nan

>  <Assay Subcellular Fraction>  (369) 
nan

>  <Organism Tax ID>  (369) 
9606

>  <BAO Format ID>  (369) 
BAO_0000019

>  <Published Type>  (369) 
nan

>  <Published Relation>  (369) 
nan

>  <Published Value>  (369) 
nan

>  <Published Units>  (369) 
nan

>  <Canonical Smiles>  (369) 
[O-][N+](=O)c1ccc(NC(=O)N2CCc3[nH]c4c(Cl)cc(Cl)cc4c3C2)cc1

>  <Data Validity Comment>  (369) 
nan

>  <Document Journal>  (369) 
nan

>  <Document Year>  (369) 
nan

>  <SRC ID>  (369) 
7

>  <UO Units>  (369) 
UO_0000065

>  <Potential Duplicate>  (369) 
False

>  <Class>  (369) 
0

$$$$

     RDKit          2D

 24 27  0  0  0  0  0  0  0  0999 V2000
    3.7500   -9.0933    0.0000 Cl  0  0  0  0  0  0  0  0  0  0  0  0
    3.0000   -7.7942    0.0000 C   0  0  0  0  0  0  0  0  0  0  0  0
    1.5000   -7.7942    0.0000 C   0  0  0  0  0  0  0  0  0  0  0  0
    0.7500   -6.4952    0.0000 C   0  0  0  0  0  0  0  0  0  0  0  0
    1.5000   -5.1962    0.0000 C   0  0  0  0  0  0  0  0  0  0  0  0
    0.7500   -3.8971    0.0000 C   0  0  0  0  0  0  0  0  0  0  0  0
    1.5000   -2.5981    0.0000 N   0  0  0  0  0  0  0  0  0  0  0  0
    0.7500   -1.2990    0.0000 C   0  0  0  0  0  0  0  0  0  0  0  0
    1.5000    0.0000    0.0000 C   0  0  0  0  0  0  0  0  0  0  0  0
    0.7500    1.2990    0.0000 C   0  0  0  0  0  0  0  0  0  0  0  0
   -0.7500    1.2990    0.0000 C   0  0  0  0  0  0  0  0  0  0  0  0
   -1.7537    2.4138    0.0000 N   0  0  0  0  0  0  0  0  0  0  0  0
   -3.1240    1.8037    0.0000 N   0  0  0  0  0  0  0  0  0  0  0  0
   -2.9672    0.3119    0.0000 C   0  0  0  0  0  0  0  0  0  0  0  0
   -4.0819   -0.6918    0.0000 C   0  0  0  0  0  0  0  0  0  0  0  0
   -5.5085   -0.2283    0.0000 C   0  0  0  0  0  0  0  0  0  0  0  0
   -6.6232   -1.2320    0.0000 C   0  0  0  0  0  0  0  0  0  0  0  0
   -6.3114   -2.6992    0.0000 C   0  0  0  0  0  0  0  0  0  0  0  0
   -4.8848   -3.1627    0.0000 C   0  0  0  0  0  0  0  0  0  0  0  0
   -3.7701   -2.1590    0.0000 C   0  0  0  0  0  0  0  0  0  0  0  0
   -1.5000    0.0000    0.0000 N   0  0  0  0  0  0  0  0  0  0  0  0
   -0.7500   -1.2990    0.0000 N   0  0  0  0  0  0  0  0  0  0  0  0
    3.0000   -5.1962    0.0000 C   0  0  0  0  0  0  0  0  0  0  0  0
    3.7500   -6.4952    0.0000 C   0  0  0  0  0  0  0  0  0  0  0  0
  1  2  1  0
  2  3  2  0
  3  4  1  0
  4  5  2  0
  5  6  1  0
  6  7  1  0
  7  8  1  0
  8  9  1  0
  9 10  2  0
 10 11  1  0
 11 12  2  0
 12 13  1  0
 13 14  2  0
 14 15  1  0
 15 16  2  0
 16 17  1  0
 17 18  2  0
 18 19  1  0
 19 20  2  0
 14 21  1  0
 21 22  1  0
  5 23  1  0
 23 24  2  0
 24  2  1  0
 22  8  2  0
 21 11  1  0
 20 15  1  0
M  END
>  <Molecule>  (370) 
CHEMBL1381197

>  <Standard Type>  (370) 
Ki

>  <Standard Relation>  (370) 
>

>  <Standard Value>  (370) 
1584.89

>  <Standard Units>  (370) 
nM

>  <pChEMBL Value>  (370) 
nan

>  <Comment>  (370) 
inactive

>  <Compound Key>  (370) 
SID103904921

>  <Assay>  (370) 
CHEMBL1963742

>  <Assay Description>  (370) 
PUBCHEM_BIOASSAY: Navigating the Kinome. (Class of assay: other) Panel member name: JAK3

>  <BAO Format>  (370) 
assay format

>  <Target>  (370) 
CHEMBL2148

>  <Target Pref. Name>  (370) 
Tyrosine-protein kinase JAK3

>  <Target Organism>  (370) 
Homo sapiens

>  <Target Type>  (370) 
SINGLE PROTEIN

>  <Document>  (370) 
CHEMBL1201862

>  <Source>  (370) 
PubChem BioAssays

>  <Max Phase>  (370) 
0

>  <#Ro5 Violations>  (370) 
0

>  <Molecular Weight>  (370) 
335.8

>  <Ligand Efficiency BEI>  (370) 
nan

>  <Ligand Efficiency LE>  (370) 
nan

>  <Ligand Efficiency LLE>  (370) 
nan

>  <Ligand Efficiency SEI>  (370) 
nan

>  <ALogP>  (370) 
4.06

>  <Assay Organism>  (370) 
nan

>  <Assay Tissue ChEMBL ID>  (370) 
nan

>  <Assay Tissue Name>  (370) 
nan

>  <Assay Cell Type>  (370) 
nan

>  <Assay Subcellular Fraction>  (370) 
nan

>  <Organism Tax ID>  (370) 
9606

>  <BAO Format ID>  (370) 
BAO_0000019

>  <Published Type>  (370) 
nan

>  <Published Relation>  (370) 
nan

>  <Published Value>  (370) 
nan

>  <Published Units>  (370) 
nan

>  <Canonical Smiles>  (370) 
Clc1ccc(CNc2ccc3nnc(c4ccccc4)n3n2)cc1

>  <Data Validity Comment>  (370) 
nan

>  <Document Journal>  (370) 
nan

>  <Document Year>  (370) 
nan

>  <SRC ID>  (370) 
7

>  <UO Units>  (370) 
UO_0000065

>  <Potential Duplicate>  (370) 
False

>  <Class>  (370) 
0

$$$$

     RDKit          2D

 32 34  0  0  0  0  0  0  0  0999 V2000
    5.2500   -2.7990    0.0000 C   0  0  0  0  0  0  0  0  0  0  0  0
    5.2500   -1.2990    0.0000 C   0  0  0  0  0  0  0  0  0  0  0  0
    5.2500    0.2010    0.0000 C   0  0  0  0  0  0  0  0  0  0  0  0
    6.7500   -1.2990    0.0000 C   0  0  0  0  0  0  0  0  0  0  0  0
    3.7500   -1.2990    0.0000 C   0  0  0  0  0  0  0  0  0  0  0  0
    3.0000   -2.5981    0.0000 O   0  0  0  0  0  0  0  0  0  0  0  0
    3.0000    0.0000    0.0000 O   0  0  0  0  0  0  0  0  0  0  0  0
    1.5000    0.0000    0.0000 C   0  0  0  0  0  0  0  0  0  0  0  0
    0.7500   -1.2990    0.0000 C   0  0  0  0  0  0  0  0  0  0  0  0
   -0.7500   -1.2990    0.0000 C   0  0  0  0  0  0  0  0  0  0  0  0
   -1.5000    0.0000    0.0000 C   0  0  0  0  0  0  0  0  0  0  0  0
   -0.7500    1.2990    0.0000 C   0  0  0  0  0  0  0  0  0  0  0  0
    0.7500    1.2990    0.0000 C   0  0  0  0  0  0  0  0  0  0  0  0
   -1.7537    2.4138    0.0000 N   0  0  0  0  0  0  0  0  0  0  0  0
   -3.1240    1.8037    0.0000 C   0  0  0  0  0  0  0  0  0  0  0  0
   -4.4231    2.5537    0.0000 N   0  0  0  0  0  0  0  0  0  0  0  0
   -4.4231    4.0537    0.0000 C   0  0  0  0  0  0  0  0  0  0  0  0
   -3.1240    4.8037    0.0000 O   0  0  0  0  0  0  0  0  0  0  0  0
   -5.7221    4.8037    0.0000 C   0  0  0  0  0  0  0  0  0  0  0  0
   -5.7221    6.3037    0.0000 C   0  0  0  0  0  0  0  0  0  0  0  0
   -7.0211    7.0537    0.0000 C   0  0  0  0  0  0  0  0  0  0  0  0
   -8.3202    6.3037    0.0000 C   0  0  0  0  0  0  0  0  0  0  0  0
   -8.3202    4.8037    0.0000 C   0  0  0  0  0  0  0  0  0  0  0  0
   -7.0211    4.0537    0.0000 C   0  0  0  0  0  0  0  0  0  0  0  0
   -9.6192    4.0537    0.0000 N   0  0  0  0  0  0  0  0  0  0  0  0
   -9.6192    2.5537    0.0000 O   0  0  0  0  0  0  0  0  0  0  0  0
  -10.9182    4.8037    0.0000 O   0  0  0  0  0  0  0  0  0  0  0  0
   -2.9672    0.3119    0.0000 N   0  0  0  0  0  0  0  0  0  0  0  0
   -4.0819   -0.6918    0.0000 C   0  0  0  0  0  0  0  0  0  0  0  0
   -5.5085   -0.2283    0.0000 C   0  0  0  0  0  0  0  0  0  0  0  0
   -6.6232   -1.2320    0.0000 C   0  0  0  0  0  0  0  0  0  0  0  0
   -8.0498   -0.7685    0.0000 O   0  0  0  0  0  0  0  0  0  0  0  0
  1  2  1  0
  2  3  1  0
  2  4  1  0
  2  5  1  0
  5  6  2  0
  5  7  1  0
  7  8  1  0
  8  9  2  0
  9 10  1  0
 10 11  2  0
 11 12  1  0
 12 13  2  0
 12 14  1  0
 14 15  2  0
 15 16  1  0
 16 17  1  0
 17 18  2  0
 17 19  1  0
 19 20  2  0
 20 21  1  0
 21 22  2  0
 22 23  1  0
 23 24  2  0
 23 25  1  0
 25 26  2  0
 25 27  1  0
 15 28  1  0
 28 29  1  0
 29 30  1  0
 30 31  1  0
 31 32  1  0
 13  8  1  0
 28 11  1  0
 24 19  1  0
M  CHG  2  25   1  27  -1
M  END
>  <Molecule>  (371) 
CHEMBL1236126

>  <Standard Type>  (371) 
Ki

>  <Standard Relation>  (371) 
>

>  <Standard Value>  (371) 
1584.89

>  <Standard Units>  (371) 
nM

>  <pChEMBL Value>  (371) 
nan

>  <Comment>  (371) 
inactive

>  <Compound Key>  (371) 
SID103905081

>  <Assay>  (371) 
CHEMBL1963742

>  <Assay Description>  (371) 
PUBCHEM_BIOASSAY: Navigating the Kinome. (Class of assay: other) Panel member name: JAK3

>  <BAO Format>  (371) 
assay format

>  <Target>  (371) 
CHEMBL2148

>  <Target Pref. Name>  (371) 
Tyrosine-protein kinase JAK3

>  <Target Organism>  (371) 
Homo sapiens

>  <Target Type>  (371) 
SINGLE PROTEIN

>  <Document>  (371) 
CHEMBL1201862

>  <Source>  (371) 
PubChem BioAssays

>  <Max Phase>  (371) 
0

>  <#Ro5 Violations>  (371) 
0

>  <Molecular Weight>  (371) 
440.46

>  <Ligand Efficiency BEI>  (371) 
nan

>  <Ligand Efficiency LE>  (371) 
nan

>  <Ligand Efficiency LLE>  (371) 
nan

>  <Ligand Efficiency SEI>  (371) 
nan

>  <ALogP>  (371) 
3.53

>  <Assay Organism>  (371) 
nan

>  <Assay Tissue ChEMBL ID>  (371) 
nan

>  <Assay Tissue Name>  (371) 
nan

>  <Assay Cell Type>  (371) 
nan

>  <Assay Subcellular Fraction>  (371) 
nan

>  <Organism Tax ID>  (371) 
9606

>  <BAO Format ID>  (371) 
BAO_0000019

>  <Published Type>  (371) 
nan

>  <Published Relation>  (371) 
nan

>  <Published Value>  (371) 
nan

>  <Published Units>  (371) 
nan

>  <Canonical Smiles>  (371) 
CC(C)(C)C(=O)Oc1ccc2c(c1)nc(NC(=O)c3cccc(c3)[N+](=O)[O-])n2CCCO

>  <Data Validity Comment>  (371) 
nan

>  <Document Journal>  (371) 
nan

>  <Document Year>  (371) 
nan

>  <SRC ID>  (371) 
7

>  <UO Units>  (371) 
UO_0000065

>  <Potential Duplicate>  (371) 
False

>  <Class>  (371) 
0

$$$$

     RDKit          2D

 27 28  0  0  0  0  0  0  0  0999 V2000
   -8.2500   -6.4952    0.0000 C   0  0  0  0  0  0  0  0  0  0  0  0
   -7.5000   -5.1962    0.0000 C   0  0  0  0  0  0  0  0  0  0  0  0
   -6.0000   -5.1962    0.0000 C   0  0  0  0  0  0  0  0  0  0  0  0
   -5.2500   -3.8971    0.0000 C   0  0  0  0  0  0  0  0  0  0  0  0
   -3.7500   -3.8971    0.0000 N   0  0  0  0  0  0  0  0  0  0  0  0
   -3.0000   -2.5981    0.0000 C   0  0  0  0  0  0  0  0  0  0  0  0
   -3.7500   -1.2990    0.0000 O   0  0  0  0  0  0  0  0  0  0  0  0
   -1.5000   -2.5981    0.0000 C   0  0  0  0  0  0  0  0  0  0  0  0
   -0.7500   -3.8971    0.0000 C   0  0  0  0  0  0  0  0  0  0  0  0
    0.7500   -3.8971    0.0000 N   0  0  0  0  0  0  0  0  0  0  0  0
    1.5000   -5.1962    0.0000 C   0  0  0  0  0  0  0  0  0  0  0  0
    0.7500   -6.4952    0.0000 C   0  0  0  0  0  0  0  0  0  0  0  0
    1.5000   -7.7942    0.0000 C   0  0  0  0  0  0  0  0  0  0  0  0
    3.0000   -5.1962    0.0000 C   0  0  0  0  0  0  0  0  0  0  0  0
    3.7500   -6.4952    0.0000 C   0  0  0  0  0  0  0  0  0  0  0  0
    1.5000   -2.5981    0.0000 C   0  0  0  0  0  0  0  0  0  0  0  0
    3.0000   -2.5981    0.0000 O   0  0  0  0  0  0  0  0  0  0  0  0
    0.7500   -1.2990    0.0000 C   0  0  0  0  0  0  0  0  0  0  0  0
    1.5000    0.0000    0.0000 C   0  0  0  0  0  0  0  0  0  0  0  0
    0.7500    1.2990    0.0000 C   0  0  0  0  0  0  0  0  0  0  0  0
    1.5000    2.5981    0.0000 O   0  0  0  0  0  0  0  0  0  0  0  0
    3.0000    2.5981    0.0000 C   0  0  0  0  0  0  0  0  0  0  0  0
   -0.7500    1.2990    0.0000 C   0  0  0  0  0  0  0  0  0  0  0  0
   -1.5000    2.5981    0.0000 O   0  0  0  0  0  0  0  0  0  0  0  0
   -0.7500    3.8971    0.0000 C   0  0  0  0  0  0  0  0  0  0  0  0
   -1.5000    0.0000    0.0000 C   0  0  0  0  0  0  0  0  0  0  0  0
   -0.7500   -1.2990    0.0000 C   0  0  0  0  0  0  0  0  0  0  0  0
  1  2  1  0
  2  3  1  0
  3  4  1  0
  4  5  1  0
  5  6  1  0
  6  7  2  0
  6  8  1  0
  8  9  2  0
  9 10  1  0
 10 11  1  0
 11 12  1  0
 12 13  1  0
 11 14  1  0
 14 15  1  0
 10 16  1  0
 16 17  2  0
 16 18  1  0
 18 19  2  0
 19 20  1  0
 20 21  1  0
 21 22  1  0
 20 23  2  0
 23 24  1  0
 24 25  1  0
 23 26  1  0
 26 27  2  0
 27  8  1  0
 27 18  1  0
M  END
>  <Molecule>  (372) 
CHEMBL1982700

>  <Standard Type>  (372) 
Ki

>  <Standard Relation>  (372) 
>

>  <Standard Value>  (372) 
5011.87

>  <Standard Units>  (372) 
nM

>  <pChEMBL Value>  (372) 
nan

>  <Comment>  (372) 
inactive

>  <Compound Key>  (372) 
SID103905518

>  <Assay>  (372) 
CHEMBL1963742

>  <Assay Description>  (372) 
PUBCHEM_BIOASSAY: Navigating the Kinome. (Class of assay: other) Panel member name: JAK3

>  <BAO Format>  (372) 
assay format

>  <Target>  (372) 
CHEMBL2148

>  <Target Pref. Name>  (372) 
Tyrosine-protein kinase JAK3

>  <Target Organism>  (372) 
Homo sapiens

>  <Target Type>  (372) 
SINGLE PROTEIN

>  <Document>  (372) 
CHEMBL1201862

>  <Source>  (372) 
PubChem BioAssays

>  <Max Phase>  (372) 
0

>  <#Ro5 Violations>  (372) 
0

>  <Molecular Weight>  (372) 
374.48

>  <Ligand Efficiency BEI>  (372) 
nan

>  <Ligand Efficiency LE>  (372) 
nan

>  <Ligand Efficiency LLE>  (372) 
nan

>  <Ligand Efficiency SEI>  (372) 
nan

>  <ALogP>  (372) 
3.91

>  <Assay Organism>  (372) 
nan

>  <Assay Tissue ChEMBL ID>  (372) 
nan

>  <Assay Tissue Name>  (372) 
nan

>  <Assay Cell Type>  (372) 
nan

>  <Assay Subcellular Fraction>  (372) 
nan

>  <Organism Tax ID>  (372) 
9606

>  <BAO Format ID>  (372) 
BAO_0000019

>  <Published Type>  (372) 
nan

>  <Published Relation>  (372) 
nan

>  <Published Value>  (372) 
nan

>  <Published Units>  (372) 
nan

>  <Canonical Smiles>  (372) 
CCCCNC(=O)C1=CN(C(CC)CC)C(=O)c2cc(OC)c(OC)cc12

>  <Data Validity Comment>  (372) 
nan

>  <Document Journal>  (372) 
nan

>  <Document Year>  (372) 
nan

>  <SRC ID>  (372) 
7

>  <UO Units>  (372) 
UO_0000065

>  <Potential Duplicate>  (372) 
False

>  <Class>  (372) 
0

$$$$

     RDKit          2D

 33 36  0  0  0  0  0  0  0  0999 V2000
    3.0000    0.0000    0.0000 N   0  0  0  0  0  0  0  0  0  0  0  0
    1.5000    0.0000    0.0000 C   0  0  0  0  0  0  0  0  0  0  0  0
    0.7500   -1.2990    0.0000 C   0  0  0  0  0  0  0  0  0  0  0  0
   -0.7500   -1.2990    0.0000 C   0  0  0  0  0  0  0  0  0  0  0  0
   -1.5000    0.0000    0.0000 C   0  0  0  0  0  0  0  0  0  0  0  0
   -0.7500    1.2990    0.0000 C   0  0  0  0  0  0  0  0  0  0  0  0
    0.7500    1.2990    0.0000 C   0  0  0  0  0  0  0  0  0  0  0  0
    1.5000    2.5981    0.0000 N   0  0  0  0  0  0  0  0  0  0  0  0
    0.7500    3.8971    0.0000 C   0  0  0  0  0  0  0  0  0  0  0  0
    1.5000    5.1962    0.0000 C   0  0  0  0  0  0  0  0  0  0  0  0
    0.7500    6.4952    0.0000 C   0  0  0  0  0  0  0  0  0  0  0  0
   -0.7500    6.4952    0.0000 C   0  0  0  0  0  0  0  0  0  0  0  0
   -1.5000    5.1962    0.0000 C   0  0  0  0  0  0  0  0  0  0  0  0
   -0.7500    3.8971    0.0000 C   0  0  0  0  0  0  0  0  0  0  0  0
   -1.5000   -2.5981    0.0000 S   0  0  0  0  0  0  0  0  0  0  0  0
   -2.7990   -1.8481    0.0000 O   0  0  0  0  0  0  0  0  0  0  0  0
   -0.2010   -3.3481    0.0000 O   0  0  0  0  0  0  0  0  0  0  0  0
   -2.2500   -3.8971    0.0000 N   0  0  0  0  0  0  0  0  0  0  0  0
   -1.5000   -5.1962    0.0000 C   0  0  0  0  0  0  0  0  0  0  0  0
   -0.0000   -5.1962    0.0000 O   0  0  0  0  0  0  0  0  0  0  0  0
   -2.2500   -6.4952    0.0000 C   0  0  0  0  0  0  0  0  0  0  0  0
   -3.7500   -6.4952    0.0000 C   0  0  0  0  0  0  0  0  0  0  0  0
   -4.5000   -7.7942    0.0000 C   0  0  0  0  0  0  0  0  0  0  0  0
   -3.7500   -9.0933    0.0000 C   0  0  0  0  0  0  0  0  0  0  0  0
   -2.2500   -9.0933    0.0000 C   0  0  0  0  0  0  0  0  0  0  0  0
   -1.5000   -7.7942    0.0000 C   0  0  0  0  0  0  0  0  0  0  0  0
   -4.5000  -10.3923    0.0000 C   0  0  0  0  0  0  0  0  0  0  0  0
   -6.0000  -10.3923    0.0000 C   0  0  0  0  0  0  0  0  0  0  0  0
   -6.7500  -11.6913    0.0000 C   0  0  0  0  0  0  0  0  0  0  0  0
   -6.0000  -12.9904    0.0000 C   0  0  0  0  0  0  0  0  0  0  0  0
   -6.7500  -14.2894    0.0000 F   0  0  0  0  0  0  0  0  0  0  0  0
   -4.5000  -12.9904    0.0000 C   0  0  0  0  0  0  0  0  0  0  0  0
   -3.7500  -11.6913    0.0000 C   0  0  0  0  0  0  0  0  0  0  0  0
  1  2  1  0
  2  3  2  0
  3  4  1  0
  4  5  2  0
  5  6  1  0
  6  7  2  0
  7  8  1  0
  8  9  1  0
  9 10  1  0
 10 11  1  0
 11 12  1  0
 12 13  1  0
 13 14  1  0
  4 15  1  0
 15 16  2  0
 15 17  2  0
 15 18  1  0
 18 19  1  0
 19 20  2  0
 19 21  1  0
 21 22  2  0
 22 23  1  0
 23 24  2  0
 24 25  1  0
 25 26  2  0
 24 27  1  0
 27 28  2  0
 28 29  1  0
 29 30  2  0
 30 31  1  0
 30 32  1  0
 32 33  2  0
  7  2  1  0
 14  9  1  0
 26 21  1  0
 33 27  1  0
M  END
>  <Molecule>  (373) 
CHEMBL1996795

>  <Standard Type>  (373) 
Ki

>  <Standard Relation>  (373) 
>

>  <Standard Value>  (373) 
5011.87

>  <Standard Units>  (373) 
nM

>  <pChEMBL Value>  (373) 
nan

>  <Comment>  (373) 
inactive

>  <Compound Key>  (373) 
SID103904678

>  <Assay>  (373) 
CHEMBL1963742

>  <Assay Description>  (373) 
PUBCHEM_BIOASSAY: Navigating the Kinome. (Class of assay: other) Panel member name: JAK3

>  <BAO Format>  (373) 
assay format

>  <Target>  (373) 
CHEMBL2148

>  <Target Pref. Name>  (373) 
Tyrosine-protein kinase JAK3

>  <Target Organism>  (373) 
Homo sapiens

>  <Target Type>  (373) 
SINGLE PROTEIN

>  <Document>  (373) 
CHEMBL1201862

>  <Source>  (373) 
PubChem BioAssays

>  <Max Phase>  (373) 
0

>  <#Ro5 Violations>  (373) 
0

>  <Molecular Weight>  (373) 
467.57

>  <Ligand Efficiency BEI>  (373) 
nan

>  <Ligand Efficiency LE>  (373) 
nan

>  <Ligand Efficiency LLE>  (373) 
nan

>  <Ligand Efficiency SEI>  (373) 
nan

>  <ALogP>  (373) 
4.94

>  <Assay Organism>  (373) 
nan

>  <Assay Tissue ChEMBL ID>  (373) 
nan

>  <Assay Tissue Name>  (373) 
nan

>  <Assay Cell Type>  (373) 
nan

>  <Assay Subcellular Fraction>  (373) 
nan

>  <Organism Tax ID>  (373) 
9606

>  <BAO Format ID>  (373) 
BAO_0000019

>  <Published Type>  (373) 
nan

>  <Published Relation>  (373) 
nan

>  <Published Value>  (373) 
nan

>  <Published Units>  (373) 
nan

>  <Canonical Smiles>  (373) 
Nc1cc(ccc1NC2CCCCC2)S(=O)(=O)NC(=O)c3ccc(cc3)c4ccc(F)cc4

>  <Data Validity Comment>  (373) 
nan

>  <Document Journal>  (373) 
nan

>  <Document Year>  (373) 
nan

>  <SRC ID>  (373) 
7

>  <UO Units>  (373) 
UO_0000065

>  <Potential Duplicate>  (373) 
False

>  <Class>  (373) 
0

$$$$

     RDKit          2D

 25 27  0  0  0  0  0  0  0  0999 V2000
    3.0000    0.0000    0.0000 N   0  0  0  0  0  0  0  0  0  0  0  0
    1.5000    0.0000    0.0000 C   0  0  0  0  0  0  0  0  0  0  0  0
    0.7500   -1.2990    0.0000 C   0  0  0  0  0  0  0  0  0  0  0  0
   -0.7500   -1.2990    0.0000 C   0  0  0  0  0  0  0  0  0  0  0  0
   -1.5000    0.0000    0.0000 C   0  0  0  0  0  0  0  0  0  0  0  0
   -0.7500    1.2990    0.0000 C   0  0  0  0  0  0  0  0  0  0  0  0
    0.7500    1.2990    0.0000 C   0  0  0  0  0  0  0  0  0  0  0  0
    1.5000    2.5981    0.0000 N   0  0  0  0  0  0  0  0  0  0  0  0
    0.7500    3.8971    0.0000 C   0  0  0  0  0  0  0  0  0  0  0  0
    1.5000    5.1962    0.0000 C   0  0  0  0  0  0  0  0  0  0  0  0
    0.7500    6.4952    0.0000 C   0  0  0  0  0  0  0  0  0  0  0  0
   -0.7500    6.4952    0.0000 C   0  0  0  0  0  0  0  0  0  0  0  0
   -1.5000    7.7942    0.0000 C   0  0  0  0  0  0  0  0  0  0  0  0
   -3.0000    7.7942    0.0000 O   0  0  0  0  0  0  0  0  0  0  0  0
   -0.7500    9.0933    0.0000 N   0  0  0  0  0  0  0  0  0  0  0  0
   -1.5000    5.1962    0.0000 C   0  0  0  0  0  0  0  0  0  0  0  0
   -3.0000    5.1962    0.0000 N   0  0  0  0  0  0  0  0  0  0  0  0
   -3.7500    3.8971    0.0000 C   0  0  0  0  0  0  0  0  0  0  0  0
   -5.2500    3.8971    0.0000 C   0  0  0  0  0  0  0  0  0  0  0  0
   -6.0000    2.5981    0.0000 C   0  0  0  0  0  0  0  0  0  0  0  0
   -5.2500    1.2990    0.0000 C   0  0  0  0  0  0  0  0  0  0  0  0
   -3.7500    1.2990    0.0000 C   0  0  0  0  0  0  0  0  0  0  0  0
   -3.0000   -0.0000    0.0000 Cl  0  0  0  0  0  0  0  0  0  0  0  0
   -3.0000    2.5981    0.0000 C   0  0  0  0  0  0  0  0  0  0  0  0
   -0.7500    3.8971    0.0000 N   0  0  0  0  0  0  0  0  0  0  0  0
  1  2  1  0
  2  3  1  0
  3  4  1  0
  4  5  1  0
  5  6  1  0
  6  7  1  0
  7  8  1  0
  8  9  1  0
  9 10  2  0
 10 11  1  0
 11 12  2  0
 12 13  1  0
 13 14  2  0
 13 15  1  0
 12 16  1  0
 16 17  1  0
 17 18  1  0
 18 19  2  0
 19 20  1  0
 20 21  2  0
 21 22  1  0
 22 23  1  0
 22 24  2  0
 16 25  2  0
  7  2  1  0
 25  9  1  0
 24 18  1  0
M  END
>  <Molecule>  (374) 
CHEMBL1982753

>  <Standard Type>  (374) 
Ki

>  <Standard Relation>  (374) 
>

>  <Standard Value>  (374) 
5011.87

>  <Standard Units>  (374) 
nM

>  <pChEMBL Value>  (374) 
nan

>  <Comment>  (374) 
inactive

>  <Compound Key>  (374) 
SID103904807

>  <Assay>  (374) 
CHEMBL1963742

>  <Assay Description>  (374) 
PUBCHEM_BIOASSAY: Navigating the Kinome. (Class of assay: other) Panel member name: JAK3

>  <BAO Format>  (374) 
assay format

>  <Target>  (374) 
CHEMBL2148

>  <Target Pref. Name>  (374) 
Tyrosine-protein kinase JAK3

>  <Target Organism>  (374) 
Homo sapiens

>  <Target Type>  (374) 
SINGLE PROTEIN

>  <Document>  (374) 
CHEMBL1201862

>  <Source>  (374) 
PubChem BioAssays

>  <Max Phase>  (374) 
0

>  <#Ro5 Violations>  (374) 
0

>  <Molecular Weight>  (374) 
359.86

>  <Ligand Efficiency BEI>  (374) 
nan

>  <Ligand Efficiency LE>  (374) 
nan

>  <Ligand Efficiency LLE>  (374) 
nan

>  <Ligand Efficiency SEI>  (374) 
nan

>  <ALogP>  (374) 
3.26

>  <Assay Organism>  (374) 
nan

>  <Assay Tissue ChEMBL ID>  (374) 
nan

>  <Assay Tissue Name>  (374) 
nan

>  <Assay Cell Type>  (374) 
nan

>  <Assay Subcellular Fraction>  (374) 
nan

>  <Organism Tax ID>  (374) 
9606

>  <BAO Format ID>  (374) 
BAO_0000019

>  <Published Type>  (374) 
nan

>  <Published Relation>  (374) 
nan

>  <Published Value>  (374) 
nan

>  <Published Units>  (374) 
nan

>  <Canonical Smiles>  (374) 
NC1CCCCC1Nc2ccc(C(=O)N)c(Nc3cccc(Cl)c3)n2

>  <Data Validity Comment>  (374) 
nan

>  <Document Journal>  (374) 
nan

>  <Document Year>  (374) 
nan

>  <SRC ID>  (374) 
7

>  <UO Units>  (374) 
UO_0000065

>  <Potential Duplicate>  (374) 
False

>  <Class>  (374) 
0

$$$$

     RDKit          2D

 26 28  0  0  0  0  0  0  0  0999 V2000
    3.7500   -1.2990    0.0000 C   0  0  0  0  0  0  0  0  0  0  0  0
    3.0000    0.0000    0.0000 C   0  0  0  0  0  0  0  0  0  0  0  0
    1.5000    0.0000    0.0000 C   0  0  0  0  0  0  0  0  0  0  0  0
    0.7500   -1.2990    0.0000 C   0  0  0  0  0  0  0  0  0  0  0  0
   -0.7500   -1.2990    0.0000 C   0  0  0  0  0  0  0  0  0  0  0  0
   -1.5000    0.0000    0.0000 C   0  0  0  0  0  0  0  0  0  0  0  0
   -3.0000    0.0000    0.0000 C   0  0  0  0  0  0  0  0  0  0  0  0
   -3.7500   -1.2990    0.0000 N   0  0  0  0  0  0  0  0  0  0  0  0
   -5.2500   -1.2990    0.0000 C   0  0  0  0  0  0  0  0  0  0  0  0
   -6.0000    0.0000    0.0000 O   0  0  0  0  0  0  0  0  0  0  0  0
   -6.0000   -2.5981    0.0000 N   0  0  0  0  0  0  0  0  0  0  0  0
   -7.5000   -2.5981    0.0000 C   0  0  0  0  0  0  0  0  0  0  0  0
   -8.2500   -1.2990    0.0000 C   0  0  0  0  0  0  0  0  0  0  0  0
   -9.7500   -1.2990    0.0000 C   0  0  0  0  0  0  0  0  0  0  0  0
  -10.5000   -2.5981    0.0000 C   0  0  0  0  0  0  0  0  0  0  0  0
   -9.7500   -3.8971    0.0000 C   0  0  0  0  0  0  0  0  0  0  0  0
   -8.2500   -3.8971    0.0000 N   0  0  0  0  0  0  0  0  0  0  0  0
  -10.5000   -5.1962    0.0000 C   0  0  0  0  0  0  0  0  0  0  0  0
  -11.2500   -6.4952    0.0000 F   0  0  0  0  0  0  0  0  0  0  0  0
  -11.7990   -4.4462    0.0000 F   0  0  0  0  0  0  0  0  0  0  0  0
   -9.2010   -5.9462    0.0000 F   0  0  0  0  0  0  0  0  0  0  0  0
   -3.7500    1.2990    0.0000 C   0  0  0  0  0  0  0  0  0  0  0  0
   -3.0000    2.5981    0.0000 C   0  0  0  0  0  0  0  0  0  0  0  0
   -1.5000    2.5981    0.0000 N   0  0  0  0  0  0  0  0  0  0  0  0
   -0.7500    1.2990    0.0000 C   0  0  0  0  0  0  0  0  0  0  0  0
    0.7500    1.2990    0.0000 C   0  0  0  0  0  0  0  0  0  0  0  0
  1  2  1  0
  2  3  1  0
  3  4  2  0
  4  5  1  0
  5  6  2  0
  6  7  1  0
  7  8  1  0
  8  9  1  0
  9 10  2  0
  9 11  1  0
 11 12  1  0
 12 13  2  0
 13 14  1  0
 14 15  2  0
 15 16  1  0
 16 17  2  0
 16 18  1  0
 18 19  1  0
 18 20  1  0
 18 21  1  0
  7 22  2  0
 22 23  1  0
 23 24  2  0
 24 25  1  0
 25 26  2  0
 26  3  1  0
 25  6  1  0
 17 12  1  0
M  END
>  <Molecule>  (375) 
CHEMBL1986756

>  <Standard Type>  (375) 
Ki

>  <Standard Relation>  (375) 
>

>  <Standard Value>  (375) 
5011.87

>  <Standard Units>  (375) 
nM

>  <pChEMBL Value>  (375) 
nan

>  <Comment>  (375) 
inactive

>  <Compound Key>  (375) 
SID103904878

>  <Assay>  (375) 
CHEMBL1963742

>  <Assay Description>  (375) 
PUBCHEM_BIOASSAY: Navigating the Kinome. (Class of assay: other) Panel member name: JAK3

>  <BAO Format>  (375) 
assay format

>  <Target>  (375) 
CHEMBL2148

>  <Target Pref. Name>  (375) 
Tyrosine-protein kinase JAK3

>  <Target Organism>  (375) 
Homo sapiens

>  <Target Type>  (375) 
SINGLE PROTEIN

>  <Document>  (375) 
CHEMBL1201862

>  <Source>  (375) 
PubChem BioAssays

>  <Max Phase>  (375) 
0

>  <#Ro5 Violations>  (375) 
0

>  <Molecular Weight>  (375) 
360.34

>  <Ligand Efficiency BEI>  (375) 
nan

>  <Ligand Efficiency LE>  (375) 
nan

>  <Ligand Efficiency LLE>  (375) 
nan

>  <Ligand Efficiency SEI>  (375) 
nan

>  <ALogP>  (375) 
4.86

>  <Assay Organism>  (375) 
nan

>  <Assay Tissue ChEMBL ID>  (375) 
nan

>  <Assay Tissue Name>  (375) 
nan

>  <Assay Cell Type>  (375) 
nan

>  <Assay Subcellular Fraction>  (375) 
nan

>  <Organism Tax ID>  (375) 
9606

>  <BAO Format ID>  (375) 
BAO_0000019

>  <Published Type>  (375) 
nan

>  <Published Relation>  (375) 
nan

>  <Published Value>  (375) 
nan

>  <Published Units>  (375) 
nan

>  <Canonical Smiles>  (375) 
CCc1ccc2c(NC(=O)Nc3cccc(n3)C(F)(F)F)ccnc2c1

>  <Data Validity Comment>  (375) 
nan

>  <Document Journal>  (375) 
nan

>  <Document Year>  (375) 
nan

>  <SRC ID>  (375) 
7

>  <UO Units>  (375) 
UO_0000065

>  <Potential Duplicate>  (375) 
False

>  <Class>  (375) 
0

$$$$

     RDKit          2D

 26 29  0  0  0  0  0  0  0  0999 V2000
    6.0000   -2.5981    0.0000 C   0  0  0  0  0  0  0  0  0  0  0  0
    5.2500   -1.2990    0.0000 N   0  0  0  0  0  0  0  0  0  0  0  0
    6.0000    0.0000    0.0000 C   0  0  0  0  0  0  0  0  0  0  0  0
    3.7500   -1.2990    0.0000 C   0  0  0  0  0  0  0  0  0  0  0  0
    3.0000   -2.5981    0.0000 O   0  0  0  0  0  0  0  0  0  0  0  0
    3.0000    0.0000    0.0000 N   0  0  0  0  0  0  0  0  0  0  0  0
    1.5000    0.0000    0.0000 C   0  0  0  0  0  0  0  0  0  0  0  0
    0.7500   -1.2990    0.0000 C   0  0  0  0  0  0  0  0  0  0  0  0
   -0.7500   -1.2990    0.0000 C   0  0  0  0  0  0  0  0  0  0  0  0
   -1.5000    0.0000    0.0000 C   0  0  0  0  0  0  0  0  0  0  0  0
   -3.0000    0.0000    0.0000 N   0  0  0  0  0  0  0  0  0  0  0  0
   -3.7500    1.2990    0.0000 C   0  0  0  0  0  0  0  0  0  0  0  0
   -5.2500    1.2990    0.0000 C   0  0  0  0  0  0  0  0  0  0  0  0
   -6.1317    0.0855    0.0000 O   0  0  0  0  0  0  0  0  0  0  0  0
   -7.5583    0.5490    0.0000 C   0  0  0  0  0  0  0  0  0  0  0  0
   -7.5583    2.0490    0.0000 C   0  0  0  0  0  0  0  0  0  0  0  0
   -6.1317    2.5126    0.0000 C   0  0  0  0  0  0  0  0  0  0  0  0
   -3.0000    2.5981    0.0000 C   0  0  0  0  0  0  0  0  0  0  0  0
   -1.5000    2.5981    0.0000 N   0  0  0  0  0  0  0  0  0  0  0  0
   -0.7500    1.2990    0.0000 C   0  0  0  0  0  0  0  0  0  0  0  0
    0.7500    1.2990    0.0000 C   0  0  0  0  0  0  0  0  0  0  0  0
   -3.7500    3.8971    0.0000 C   0  0  0  0  0  0  0  0  0  0  0  0
   -5.2418    4.0539    0.0000 O   0  0  0  0  0  0  0  0  0  0  0  0
   -5.5537    5.5211    0.0000 C   0  0  0  0  0  0  0  0  0  0  0  0
   -4.2546    6.2711    0.0000 C   0  0  0  0  0  0  0  0  0  0  0  0
   -3.1399    5.2674    0.0000 C   0  0  0  0  0  0  0  0  0  0  0  0
  1  2  1  0
  2  3  1  0
  2  4  1  0
  4  5  2  0
  4  6  1  0
  6  7  1  0
  7  8  2  0
  8  9  1  0
  9 10  2  0
 10 11  1  0
 11 12  2  0
 12 13  1  0
 13 14  1  0
 14 15  1  0
 15 16  2  0
 16 17  1  0
 12 18  1  0
 18 19  2  0
 19 20  1  0
 20 21  2  0
 18 22  1  0
 22 23  1  0
 23 24  1  0
 24 25  2  0
 25 26  1  0
 21  7  1  0
 20 10  1  0
 17 13  2  0
 26 22  2  0
M  END
>  <Molecule>  (376) 
CHEMBL1986328

>  <Standard Type>  (376) 
Ki

>  <Standard Relation>  (376) 
>

>  <Standard Value>  (376) 
1584.89

>  <Standard Units>  (376) 
nM

>  <pChEMBL Value>  (376) 
nan

>  <Comment>  (376) 
inactive

>  <Compound Key>  (376) 
SID103905269

>  <Assay>  (376) 
CHEMBL1963742

>  <Assay Description>  (376) 
PUBCHEM_BIOASSAY: Navigating the Kinome. (Class of assay: other) Panel member name: JAK3

>  <BAO Format>  (376) 
assay format

>  <Target>  (376) 
CHEMBL2148

>  <Target Pref. Name>  (376) 
Tyrosine-protein kinase JAK3

>  <Target Organism>  (376) 
Homo sapiens

>  <Target Type>  (376) 
SINGLE PROTEIN

>  <Document>  (376) 
CHEMBL1201862

>  <Source>  (376) 
PubChem BioAssays

>  <Max Phase>  (376) 
0

>  <#Ro5 Violations>  (376) 
0

>  <Molecular Weight>  (376) 
348.36

>  <Ligand Efficiency BEI>  (376) 
nan

>  <Ligand Efficiency LE>  (376) 
nan

>  <Ligand Efficiency LLE>  (376) 
nan

>  <Ligand Efficiency SEI>  (376) 
nan

>  <ALogP>  (376) 
4.24

>  <Assay Organism>  (376) 
nan

>  <Assay Tissue ChEMBL ID>  (376) 
nan

>  <Assay Tissue Name>  (376) 
nan

>  <Assay Cell Type>  (376) 
nan

>  <Assay Subcellular Fraction>  (376) 
nan

>  <Organism Tax ID>  (376) 
9606

>  <BAO Format ID>  (376) 
BAO_0000019

>  <Published Type>  (376) 
nan

>  <Published Relation>  (376) 
nan

>  <Published Value>  (376) 
nan

>  <Published Units>  (376) 
nan

>  <Canonical Smiles>  (376) 
CN(C)C(=O)Nc1ccc2nc(c3occc3)c(nc2c1)c4occc4

>  <Data Validity Comment>  (376) 
nan

>  <Document Journal>  (376) 
nan

>  <Document Year>  (376) 
nan

>  <SRC ID>  (376) 
7

>  <UO Units>  (376) 
UO_0000065

>  <Potential Duplicate>  (376) 
False

>  <Class>  (376) 
0

$$$$

     RDKit          2D

 23 26  0  0  0  0  0  0  0  0999 V2000
   -1.2990   -5.8573    0.0000 C   0  0  0  0  0  0  0  0  0  0  0  0
   -0.0000   -5.1073    0.0000 N   0  0  0  0  0  0  0  0  0  0  0  0
   -0.0000   -3.6073    0.0000 C   0  0  0  0  0  0  0  0  0  0  0  0
    1.2135   -2.7256    0.0000 N   0  0  0  0  0  0  0  0  0  0  0  0
    0.7500   -1.2990    0.0000 C   0  0  0  0  0  0  0  0  0  0  0  0
    1.5000    0.0000    0.0000 C   0  0  0  0  0  0  0  0  0  0  0  0
    0.7500    1.2990    0.0000 C   0  0  0  0  0  0  0  0  0  0  0  0
   -0.7500    1.2990    0.0000 C   0  0  0  0  0  0  0  0  0  0  0  0
   -1.5000    0.0000    0.0000 C   0  0  0  0  0  0  0  0  0  0  0  0
   -0.7500   -1.2990    0.0000 C   0  0  0  0  0  0  0  0  0  0  0  0
   -1.2135   -2.7256    0.0000 S   0  0  0  0  0  0  0  0  0  0  0  0
   -1.5000    2.5981    0.0000 C   0  0  0  0  0  0  0  0  0  0  0  0
   -0.7500    3.8971    0.0000 C   0  0  0  0  0  0  0  0  0  0  0  0
   -1.5000    5.1962    0.0000 C   0  0  0  0  0  0  0  0  0  0  0  0
   -3.0000    5.1962    0.0000 N   0  0  0  0  0  0  0  0  0  0  0  0
   -3.7500    3.8971    0.0000 C   0  0  0  0  0  0  0  0  0  0  0  0
   -3.0000    2.5981    0.0000 C   0  0  0  0  0  0  0  0  0  0  0  0
   -1.2990   -7.3573    0.0000 C   0  0  0  0  0  0  0  0  0  0  0  0
   -2.5981   -8.1073    0.0000 C   0  0  0  0  0  0  0  0  0  0  0  0
   -2.5981   -9.6073    0.0000 C   0  0  0  0  0  0  0  0  0  0  0  0
   -1.2990  -10.3573    0.0000 C   0  0  0  0  0  0  0  0  0  0  0  0
    0.0000   -9.6073    0.0000 C   0  0  0  0  0  0  0  0  0  0  0  0
   -0.0000   -8.1073    0.0000 C   0  0  0  0  0  0  0  0  0  0  0  0
  1  2  1  0
  2  3  1  0
  3  4  2  0
  4  5  1  0
  5  6  2  0
  6  7  1  0
  7  8  2  0
  8  9  1  0
  9 10  2  0
 10 11  1  0
  8 12  1  0
 12 13  2  0
 13 14  1  0
 14 15  2  0
 15 16  1  0
 16 17  2  0
  1 18  1  0
 18 19  2  0
 19 20  1  0
 20 21  2  0
 21 22  1  0
 22 23  2  0
 11  3  1  0
 10  5  1  0
 17 12  1  0
 23 18  1  0
M  END
>  <Molecule>  (377) 
CHEMBL1983534

>  <Standard Type>  (377) 
Ki

>  <Standard Relation>  (377) 
>

>  <Standard Value>  (377) 
1584.89

>  <Standard Units>  (377) 
nM

>  <pChEMBL Value>  (377) 
nan

>  <Comment>  (377) 
inactive

>  <Compound Key>  (377) 
SID103904564

>  <Assay>  (377) 
CHEMBL1963742

>  <Assay Description>  (377) 
PUBCHEM_BIOASSAY: Navigating the Kinome. (Class of assay: other) Panel member name: JAK3

>  <BAO Format>  (377) 
assay format

>  <Target>  (377) 
CHEMBL2148

>  <Target Pref. Name>  (377) 
Tyrosine-protein kinase JAK3

>  <Target Organism>  (377) 
Homo sapiens

>  <Target Type>  (377) 
SINGLE PROTEIN

>  <Document>  (377) 
CHEMBL1201862

>  <Source>  (377) 
PubChem BioAssays

>  <Max Phase>  (377) 
0

>  <#Ro5 Violations>  (377) 
0

>  <Molecular Weight>  (377) 
317.42

>  <Ligand Efficiency BEI>  (377) 
nan

>  <Ligand Efficiency LE>  (377) 
nan

>  <Ligand Efficiency LLE>  (377) 
nan

>  <Ligand Efficiency SEI>  (377) 
nan

>  <ALogP>  (377) 
4.97

>  <Assay Organism>  (377) 
nan

>  <Assay Tissue ChEMBL ID>  (377) 
nan

>  <Assay Tissue Name>  (377) 
nan

>  <Assay Cell Type>  (377) 
nan

>  <Assay Subcellular Fraction>  (377) 
nan

>  <Organism Tax ID>  (377) 
9606

>  <BAO Format ID>  (377) 
BAO_0000019

>  <Published Type>  (377) 
nan

>  <Published Relation>  (377) 
nan

>  <Published Value>  (377) 
nan

>  <Published Units>  (377) 
nan

>  <Canonical Smiles>  (377) 
C(Nc1nc2ccc(cc2s1)c3ccncc3)c4ccccc4

>  <Data Validity Comment>  (377) 
nan

>  <Document Journal>  (377) 
nan

>  <Document Year>  (377) 
nan

>  <SRC ID>  (377) 
7

>  <UO Units>  (377) 
UO_0000065

>  <Potential Duplicate>  (377) 
False

>  <Class>  (377) 
0

$$$$

     RDKit          2D

 23 25  0  0  0  0  0  0  0  0999 V2000
   -1.0409   -5.7068    0.0000 N   0  0  0  0  0  0  0  0  0  0  0  0
   -0.5773   -4.2803    0.0000 C   0  0  0  0  0  0  0  0  0  0  0  0
   -1.5810   -3.1655    0.0000 O   0  0  0  0  0  0  0  0  0  0  0  0
    0.8899   -3.9684    0.0000 C   0  0  0  0  0  0  0  0  0  0  0  0
    2.0046   -4.9721    0.0000 C   0  0  0  0  0  0  0  0  0  0  0  0
    3.3037   -4.2221    0.0000 C   0  0  0  0  0  0  0  0  0  0  0  0
    2.9918   -2.7549    0.0000 N   0  0  0  0  0  0  0  0  0  0  0  0
    1.5000   -2.5981    0.0000 C   0  0  0  0  0  0  0  0  0  0  0  0
    0.7500   -1.2990    0.0000 C   0  0  0  0  0  0  0  0  0  0  0  0
   -0.7500   -1.2990    0.0000 C   0  0  0  0  0  0  0  0  0  0  0  0
   -1.5000   -0.0000    0.0000 C   0  0  0  0  0  0  0  0  0  0  0  0
   -0.7500    1.2990    0.0000 C   0  0  0  0  0  0  0  0  0  0  0  0
   -1.5000    2.5981    0.0000 Cl  0  0  0  0  0  0  0  0  0  0  0  0
    0.7500    1.2990    0.0000 C   0  0  0  0  0  0  0  0  0  0  0  0
    1.5000   -0.0000    0.0000 C   0  0  0  0  0  0  0  0  0  0  0  0
    3.0000   -0.0000    0.0000 F   0  0  0  0  0  0  0  0  0  0  0  0
    4.6740   -4.8322    0.0000 C   0  0  0  0  0  0  0  0  0  0  0  0
    4.8308   -6.3240    0.0000 C   0  0  0  0  0  0  0  0  0  0  0  0
    6.2011   -6.9341    0.0000 C   0  0  0  0  0  0  0  0  0  0  0  0
    7.4146   -6.0524    0.0000 N   0  0  0  0  0  0  0  0  0  0  0  0
    7.2578   -4.5606    0.0000 C   0  0  0  0  0  0  0  0  0  0  0  0
    8.4713   -3.6789    0.0000 N   0  0  0  0  0  0  0  0  0  0  0  0
    5.8875   -3.9505    0.0000 N   0  0  0  0  0  0  0  0  0  0  0  0
  1  2  1  0
  2  3  2  0
  2  4  1  0
  4  5  1  0
  5  6  2  0
  6  7  1  0
  7  8  1  0
  8  9  1  0
  9 10  2  0
 10 11  1  0
 11 12  2  0
 12 13  1  0
 12 14  1  0
 14 15  2  0
 15 16  1  0
  6 17  1  0
 17 18  2  0
 18 19  1  0
 19 20  2  0
 20 21  1  0
 21 22  1  0
 21 23  2  0
  8  4  2  0
 15  9  1  0
 23 17  1  0
M  END
>  <Molecule>  (378) 
CHEMBL1981079

>  <Standard Type>  (378) 
Ki

>  <Standard Relation>  (378) 
>

>  <Standard Value>  (378) 
3162.28

>  <Standard Units>  (378) 
nM

>  <pChEMBL Value>  (378) 
nan

>  <Comment>  (378) 
inactive

>  <Compound Key>  (378) 
SID103904988

>  <Assay>  (378) 
CHEMBL1963742

>  <Assay Description>  (378) 
PUBCHEM_BIOASSAY: Navigating the Kinome. (Class of assay: other) Panel member name: JAK3

>  <BAO Format>  (378) 
assay format

>  <Target>  (378) 
CHEMBL2148

>  <Target Pref. Name>  (378) 
Tyrosine-protein kinase JAK3

>  <Target Organism>  (378) 
Homo sapiens

>  <Target Type>  (378) 
SINGLE PROTEIN

>  <Document>  (378) 
CHEMBL1201862

>  <Source>  (378) 
PubChem BioAssays

>  <Max Phase>  (378) 
0

>  <#Ro5 Violations>  (378) 
0

>  <Molecular Weight>  (378) 
331.74

>  <Ligand Efficiency BEI>  (378) 
nan

>  <Ligand Efficiency LE>  (378) 
nan

>  <Ligand Efficiency LLE>  (378) 
nan

>  <Ligand Efficiency SEI>  (378) 
nan

>  <ALogP>  (378) 
2.61

>  <Assay Organism>  (378) 
nan

>  <Assay Tissue ChEMBL ID>  (378) 
nan

>  <Assay Tissue Name>  (378) 
nan

>  <Assay Cell Type>  (378) 
nan

>  <Assay Subcellular Fraction>  (378) 
nan

>  <Organism Tax ID>  (378) 
9606

>  <BAO Format ID>  (378) 
BAO_0000019

>  <Published Type>  (378) 
nan

>  <Published Relation>  (378) 
nan

>  <Published Value>  (378) 
nan

>  <Published Units>  (378) 
nan

>  <Canonical Smiles>  (378) 
NC(=O)c1cc([nH]c1c2ccc(Cl)cc2F)c3ccnc(N)n3

>  <Data Validity Comment>  (378) 
nan

>  <Document Journal>  (378) 
nan

>  <Document Year>  (378) 
nan

>  <SRC ID>  (378) 
7

>  <UO Units>  (378) 
UO_0000065

>  <Potential Duplicate>  (378) 
False

>  <Class>  (378) 
0

$$$$

     RDKit          2D

 28 32  0  0  0  0  0  0  0  0999 V2000
   -3.7527    6.6955    0.0000 F   0  0  0  0  0  0  0  0  0  0  0  0
   -2.6380    5.6918    0.0000 C   0  0  0  0  0  0  0  0  0  0  0  0
   -2.9499    4.2246    0.0000 C   0  0  0  0  0  0  0  0  0  0  0  0
   -1.8351    3.2209    0.0000 C   0  0  0  0  0  0  0  0  0  0  0  0
   -2.1470    1.7537    0.0000 C   0  0  0  0  0  0  0  0  0  0  0  0
   -3.5736    1.2902    0.0000 O   0  0  0  0  0  0  0  0  0  0  0  0
   -1.0323    0.7500    0.0000 C   0  0  0  0  0  0  0  0  0  0  0  0
    0.3943    1.2135    0.0000 C   0  0  0  0  0  0  0  0  0  0  0  0
    1.2760    0.0000    0.0000 S   0  0  0  0  0  0  0  0  0  0  0  0
    0.3943   -1.2135    0.0000 N   0  0  0  0  0  0  0  0  0  0  0  0
   -1.0323   -0.7500    0.0000 C   0  0  0  0  0  0  0  0  0  0  0  0
   -2.2458   -1.6317    0.0000 O   0  0  0  0  0  0  0  0  0  0  0  0
    0.7062    2.6807    0.0000 N   0  0  0  0  0  0  0  0  0  0  0  0
    2.1328    3.1443    0.0000 C   0  0  0  0  0  0  0  0  0  0  0  0
    3.1364    4.2590    0.0000 C   0  0  0  0  0  0  0  0  0  0  0  0
    3.6000    2.8324    0.0000 C   0  0  0  0  0  0  0  0  0  0  0  0
   -0.4086    3.6844    0.0000 C   0  0  0  0  0  0  0  0  0  0  0  0
   -0.0967    5.1517    0.0000 C   0  0  0  0  0  0  0  0  0  0  0  0
    1.3299    5.6152    0.0000 F   0  0  0  0  0  0  0  0  0  0  0  0
   -1.2114    6.1554    0.0000 C   0  0  0  0  0  0  0  0  0  0  0  0
   -0.8995    7.6226    0.0000 N   0  0  0  0  0  0  0  0  0  0  0  0
    0.5271    8.0861    0.0000 C   0  0  0  0  0  0  0  0  0  0  0  0
    0.8389    9.5533    0.0000 C   0  0  0  0  0  0  0  0  0  0  0  0
    2.2655   10.0169    0.0000 C   0  0  0  0  0  0  0  0  0  0  0  0
    2.5774   11.4841    0.0000 C   0  0  0  0  0  0  0  0  0  0  0  0
    1.4627   12.4878    0.0000 C   0  0  0  0  0  0  0  0  0  0  0  0
    0.0361   12.0242    0.0000 C   0  0  0  0  0  0  0  0  0  0  0  0
   -0.2758   10.5570    0.0000 C   0  0  0  0  0  0  0  0  0  0  0  0
  1  2  1  0
  2  3  2  0
  3  4  1  0
  4  5  1  0
  5  6  2  0
  5  7  1  0
  7  8  2  0
  8  9  1  0
  9 10  1  0
 10 11  1  0
 11 12  2  0
  8 13  1  0
 13 14  1  0
 14 15  1  0
 15 16  1  0
 13 17  1  0
 17 18  1  0
 18 19  1  0
 18 20  2  0
 20 21  1  0
 21 22  1  0
 22 23  1  0
 23 24  2  0
 24 25  1  0
 25 26  2  0
 26 27  1  0
 27 28  2  0
 20  2  1  0
 17  4  2  0
 11  7  1  0
 16 14  1  0
 28 23  1  0
M  END
>  <Molecule>  (379) 
CHEMBL1991640

>  <Standard Type>  (379) 
Ki

>  <Standard Relation>  (379) 
>

>  <Standard Value>  (379) 
1584.89

>  <Standard Units>  (379) 
nM

>  <pChEMBL Value>  (379) 
nan

>  <Comment>  (379) 
inactive

>  <Compound Key>  (379) 
SID103905583

>  <Assay>  (379) 
CHEMBL1963742

>  <Assay Description>  (379) 
PUBCHEM_BIOASSAY: Navigating the Kinome. (Class of assay: other) Panel member name: JAK3

>  <BAO Format>  (379) 
assay format

>  <Target>  (379) 
CHEMBL2148

>  <Target Pref. Name>  (379) 
Tyrosine-protein kinase JAK3

>  <Target Organism>  (379) 
Homo sapiens

>  <Target Type>  (379) 
SINGLE PROTEIN

>  <Document>  (379) 
CHEMBL1201862

>  <Source>  (379) 
PubChem BioAssays

>  <Max Phase>  (379) 
0

>  <#Ro5 Violations>  (379) 
0

>  <Molecular Weight>  (379) 
399.42

>  <Ligand Efficiency BEI>  (379) 
nan

>  <Ligand Efficiency LE>  (379) 
nan

>  <Ligand Efficiency LLE>  (379) 
nan

>  <Ligand Efficiency SEI>  (379) 
nan

>  <ALogP>  (379) 
4.13

>  <Assay Organism>  (379) 
nan

>  <Assay Tissue ChEMBL ID>  (379) 
nan

>  <Assay Tissue Name>  (379) 
nan

>  <Assay Cell Type>  (379) 
nan

>  <Assay Subcellular Fraction>  (379) 
nan

>  <Organism Tax ID>  (379) 
9606

>  <BAO Format ID>  (379) 
BAO_0000019

>  <Published Type>  (379) 
nan

>  <Published Relation>  (379) 
nan

>  <Published Value>  (379) 
nan

>  <Published Units>  (379) 
nan

>  <Canonical Smiles>  (379) 
Fc1cc2C(=O)C3=C(SNC3=O)N(C4CC4)c2c(F)c1NCc5ccccc5

>  <Data Validity Comment>  (379) 
nan

>  <Document Journal>  (379) 
nan

>  <Document Year>  (379) 
nan

>  <SRC ID>  (379) 
7

>  <UO Units>  (379) 
UO_0000065

>  <Potential Duplicate>  (379) 
False

>  <Class>  (379) 
0

$$$$

     RDKit          2D

 24 26  0  0  0  0  0  0  0  0999 V2000
    3.7500   -1.2990    0.0000 C   0  0  0  0  0  0  0  0  0  0  0  0
    3.0000    0.0000    0.0000 O   0  0  0  0  0  0  0  0  0  0  0  0
    1.5000    0.0000    0.0000 C   0  0  0  0  0  0  0  0  0  0  0  0
    0.7500   -1.2990    0.0000 C   0  0  0  0  0  0  0  0  0  0  0  0
   -0.7500   -1.2990    0.0000 C   0  0  0  0  0  0  0  0  0  0  0  0
   -1.5000    0.0000    0.0000 C   0  0  0  0  0  0  0  0  0  0  0  0
   -0.7500    1.2990    0.0000 C   0  0  0  0  0  0  0  0  0  0  0  0
    0.7500    1.2990    0.0000 C   0  0  0  0  0  0  0  0  0  0  0  0
    1.5000    2.5981    0.0000 C   0  0  0  0  0  0  0  0  0  0  0  0
    3.0000    2.5981    0.0000 N   0  0  0  0  0  0  0  0  0  0  0  0
    3.7500    3.8971    0.0000 C   0  0  0  0  0  0  0  0  0  0  0  0
    5.2500    3.8971    0.0000 N   0  0  0  0  0  0  0  0  0  0  0  0
    3.0000    5.1962    0.0000 N   0  0  0  0  0  0  0  0  0  0  0  0
    3.7500    6.4952    0.0000 C   0  0  0  0  0  0  0  0  0  0  0  0
    5.2500    6.4952    0.0000 N   0  0  0  0  0  0  0  0  0  0  0  0
    6.0000    7.7942    0.0000 C   0  0  0  0  0  0  0  0  0  0  0  0
    5.2500    9.0933    0.0000 C   0  0  0  0  0  0  0  0  0  0  0  0
    3.7500    9.0933    0.0000 C   0  0  0  0  0  0  0  0  0  0  0  0
    3.0000    7.7942    0.0000 N   0  0  0  0  0  0  0  0  0  0  0  0
    3.0000   10.3923    0.0000 C   0  0  0  0  0  0  0  0  0  0  0  0
    1.5082   10.5491    0.0000 C   0  0  0  0  0  0  0  0  0  0  0  0
    1.1963   12.0163    0.0000 C   0  0  0  0  0  0  0  0  0  0  0  0
    2.4954   12.7663    0.0000 C   0  0  0  0  0  0  0  0  0  0  0  0
    3.6101   11.7626    0.0000 S   0  0  0  0  0  0  0  0  0  0  0  0
  1  2  1  0
  2  3  1  0
  3  4  2  0
  4  5  1  0
  5  6  2  0
  6  7  1  0
  7  8  2  0
  8  9  1  0
  9 10  1  0
 10 11  1  0
 11 12  2  0
 11 13  1  0
 13 14  1  0
 14 15  2  0
 15 16  1  0
 16 17  2  0
 17 18  1  0
 18 19  2  0
 18 20  1  0
 20 21  2  0
 21 22  1  0
 22 23  2  0
 23 24  1  0
  8  3  1  0
 19 14  1  0
 24 20  1  0
M  END
>  <Molecule>  (380) 
CHEMBL1997197

>  <Standard Type>  (380) 
Ki

>  <Standard Relation>  (380) 
>

>  <Standard Value>  (380) 
5011.87

>  <Standard Units>  (380) 
nM

>  <pChEMBL Value>  (380) 
nan

>  <Comment>  (380) 
inactive

>  <Compound Key>  (380) 
SID103904824

>  <Assay>  (380) 
CHEMBL1963742

>  <Assay Description>  (380) 
PUBCHEM_BIOASSAY: Navigating the Kinome. (Class of assay: other) Panel member name: JAK3

>  <BAO Format>  (380) 
assay format

>  <Target>  (380) 
CHEMBL2148

>  <Target Pref. Name>  (380) 
Tyrosine-protein kinase JAK3

>  <Target Organism>  (380) 
Homo sapiens

>  <Target Type>  (380) 
SINGLE PROTEIN

>  <Document>  (380) 
CHEMBL1201862

>  <Source>  (380) 
PubChem BioAssays

>  <Max Phase>  (380) 
0

>  <#Ro5 Violations>  (380) 
0

>  <Molecular Weight>  (380) 
339.42

>  <Ligand Efficiency BEI>  (380) 
nan

>  <Ligand Efficiency LE>  (380) 
nan

>  <Ligand Efficiency LLE>  (380) 
nan

>  <Ligand Efficiency SEI>  (380) 
nan

>  <ALogP>  (380) 
3.35

>  <Assay Organism>  (380) 
nan

>  <Assay Tissue ChEMBL ID>  (380) 
nan

>  <Assay Tissue Name>  (380) 
nan

>  <Assay Cell Type>  (380) 
nan

>  <Assay Subcellular Fraction>  (380) 
nan

>  <Organism Tax ID>  (380) 
9606

>  <BAO Format ID>  (380) 
BAO_0000019

>  <Published Type>  (380) 
nan

>  <Published Relation>  (380) 
nan

>  <Published Value>  (380) 
nan

>  <Published Units>  (380) 
nan

>  <Canonical Smiles>  (380) 
COc1ccccc1CNC(=N)Nc2nccc(n2)c3cccs3

>  <Data Validity Comment>  (380) 
nan

>  <Document Journal>  (380) 
nan

>  <Document Year>  (380) 
nan

>  <SRC ID>  (380) 
7

>  <UO Units>  (380) 
UO_0000065

>  <Potential Duplicate>  (380) 
False

>  <Class>  (380) 
0

$$$$

     RDKit          2D

 23 26  0  0  0  0  0  0  0  0999 V2000
   -4.6904   -6.5871    0.0000 Cl  0  0  0  0  0  0  0  0  0  0  0  0
   -4.3786   -5.1199    0.0000 C   0  0  0  0  0  0  0  0  0  0  0  0
   -5.4933   -4.1162    0.0000 C   0  0  0  0  0  0  0  0  0  0  0  0
   -5.1814   -2.6490    0.0000 C   0  0  0  0  0  0  0  0  0  0  0  0
   -6.2961   -1.6453    0.0000 N   0  0  0  0  0  0  0  0  0  0  0  0
   -5.9843   -0.1781    0.0000 C   0  0  0  0  0  0  0  0  0  0  0  0
   -4.5577    0.2855    0.0000 C   0  0  0  0  0  0  0  0  0  0  0  0
   -4.2458    1.7527    0.0000 C   0  0  0  0  0  0  0  0  0  0  0  0
   -5.3605    2.7564    0.0000 C   0  0  0  0  0  0  0  0  0  0  0  0
   -6.7871    2.2929    0.0000 C   0  0  0  0  0  0  0  0  0  0  0  0
   -7.0990    0.8256    0.0000 C   0  0  0  0  0  0  0  0  0  0  0  0
   -3.7548   -2.1855    0.0000 N   0  0  0  0  0  0  0  0  0  0  0  0
   -2.6401   -3.1891    0.0000 C   0  0  0  0  0  0  0  0  0  0  0  0
   -2.9520   -4.6564    0.0000 N   0  0  0  0  0  0  0  0  0  0  0  0
   -1.2135   -2.7256    0.0000 C   0  0  0  0  0  0  0  0  0  0  0  0
    0.0000   -3.6073    0.0000 C   0  0  0  0  0  0  0  0  0  0  0  0
    1.2135   -2.7256    0.0000 N   0  0  0  0  0  0  0  0  0  0  0  0
    0.7500   -1.2990    0.0000 C   0  0  0  0  0  0  0  0  0  0  0  0
    1.5000    0.0000    0.0000 N   0  0  0  0  0  0  0  0  0  0  0  0
    0.7500    1.2990    0.0000 C   0  0  0  0  0  0  0  0  0  0  0  0
   -0.7500    1.2990    0.0000 C   0  0  0  0  0  0  0  0  0  0  0  0
   -1.5000    0.0000    0.0000 C   0  0  0  0  0  0  0  0  0  0  0  0
   -0.7500   -1.2990    0.0000 C   0  0  0  0  0  0  0  0  0  0  0  0
  1  2  1  0
  2  3  2  0
  3  4  1  0
  4  5  1  0
  5  6  1  0
  6  7  1  0
  7  8  1  0
  8  9  1  0
  9 10  1  0
 10 11  1  0
  4 12  2  0
 12 13  1  0
 13 14  2  0
 13 15  1  0
 15 16  2  0
 16 17  1  0
 17 18  1  0
 18 19  2  0
 19 20  1  0
 20 21  2  0
 21 22  1  0
 22 23  2  0
 14  2  1  0
 11  6  1  0
 23 15  1  0
 23 18  1  0
M  END
>  <Molecule>  (381) 
CHEMBL1997846

>  <Standard Type>  (381) 
Ki

>  <Standard Relation>  (381) 
>

>  <Standard Value>  (381) 
1995.26

>  <Standard Units>  (381) 
nM

>  <pChEMBL Value>  (381) 
nan

>  <Comment>  (381) 
inactive

>  <Compound Key>  (381) 
SID103904204

>  <Assay>  (381) 
CHEMBL1963742

>  <Assay Description>  (381) 
PUBCHEM_BIOASSAY: Navigating the Kinome. (Class of assay: other) Panel member name: JAK3

>  <BAO Format>  (381) 
assay format

>  <Target>  (381) 
CHEMBL2148

>  <Target Pref. Name>  (381) 
Tyrosine-protein kinase JAK3

>  <Target Organism>  (381) 
Homo sapiens

>  <Target Type>  (381) 
SINGLE PROTEIN

>  <Document>  (381) 
CHEMBL1201862

>  <Source>  (381) 
PubChem BioAssays

>  <Max Phase>  (381) 
0

>  <#Ro5 Violations>  (381) 
0

>  <Molecular Weight>  (381) 
327.82

>  <Ligand Efficiency BEI>  (381) 
nan

>  <Ligand Efficiency LE>  (381) 
nan

>  <Ligand Efficiency LLE>  (381) 
nan

>  <Ligand Efficiency SEI>  (381) 
nan

>  <ALogP>  (381) 
4.42

>  <Assay Organism>  (381) 
nan

>  <Assay Tissue ChEMBL ID>  (381) 
nan

>  <Assay Tissue Name>  (381) 
nan

>  <Assay Cell Type>  (381) 
nan

>  <Assay Subcellular Fraction>  (381) 
nan

>  <Organism Tax ID>  (381) 
9606

>  <BAO Format ID>  (381) 
BAO_0000019

>  <Published Type>  (381) 
nan

>  <Published Relation>  (381) 
nan

>  <Published Value>  (381) 
nan

>  <Published Units>  (381) 
nan

>  <Canonical Smiles>  (381) 
Clc1cc(NC2CCCCC2)nc(n1)c3c[nH]c4ncccc34

>  <Data Validity Comment>  (381) 
nan

>  <Document Journal>  (381) 
nan

>  <Document Year>  (381) 
nan

>  <SRC ID>  (381) 
7

>  <UO Units>  (381) 
UO_0000065

>  <Potential Duplicate>  (381) 
False

>  <Class>  (381) 
0

$$$$

     RDKit          2D

 27 29  0  0  0  0  0  0  0  0999 V2000
    6.0000    0.0000    0.0000 C   0  0  0  0  0  0  0  0  0  0  0  0
    4.5000    0.0000    0.0000 C   0  0  0  0  0  0  0  0  0  0  0  0
    3.0000    0.0000    0.0000 C   0  0  0  0  0  0  0  0  0  0  0  0
    1.5000    0.0000    0.0000 C   0  0  0  0  0  0  0  0  0  0  0  0
    0.7500   -1.2990    0.0000 C   0  0  0  0  0  0  0  0  0  0  0  0
   -0.7500   -1.2990    0.0000 C   0  0  0  0  0  0  0  0  0  0  0  0
   -1.5000    0.0000    0.0000 C   0  0  0  0  0  0  0  0  0  0  0  0
   -3.0000    0.0000    0.0000 N   0  0  0  0  0  0  0  0  0  0  0  0
   -3.7500    1.2990    0.0000 C   0  0  0  0  0  0  0  0  0  0  0  0
   -3.0000    2.5981    0.0000 C   0  0  0  0  0  0  0  0  0  0  0  0
   -1.5000    2.5981    0.0000 C   0  0  0  0  0  0  0  0  0  0  0  0
   -0.7500    3.8971    0.0000 N   0  0  0  0  0  0  0  0  0  0  0  0
   -1.5000    5.1962    0.0000 C   0  0  0  0  0  0  0  0  0  0  0  0
   -3.0000    5.1962    0.0000 O   0  0  0  0  0  0  0  0  0  0  0  0
   -0.7500    6.4952    0.0000 N   0  0  0  0  0  0  0  0  0  0  0  0
   -1.5000    7.7942    0.0000 C   0  0  0  0  0  0  0  0  0  0  0  0
   -0.7500    9.0933    0.0000 C   0  0  0  0  0  0  0  0  0  0  0  0
   -1.5000   10.3923    0.0000 C   0  0  0  0  0  0  0  0  0  0  0  0
   -3.0000   10.3923    0.0000 C   0  0  0  0  0  0  0  0  0  0  0  0
   -3.7500    9.0933    0.0000 C   0  0  0  0  0  0  0  0  0  0  0  0
   -3.0000    7.7942    0.0000 N   0  0  0  0  0  0  0  0  0  0  0  0
   -5.2500    9.0933    0.0000 C   0  0  0  0  0  0  0  0  0  0  0  0
   -6.7500    9.0933    0.0000 F   0  0  0  0  0  0  0  0  0  0  0  0
   -5.2500   10.5933    0.0000 F   0  0  0  0  0  0  0  0  0  0  0  0
   -5.2500    7.5933    0.0000 F   0  0  0  0  0  0  0  0  0  0  0  0
   -0.7500    1.2990    0.0000 C   0  0  0  0  0  0  0  0  0  0  0  0
    0.7500    1.2990    0.0000 C   0  0  0  0  0  0  0  0  0  0  0  0
  1  2  1  0
  2  3  3  0
  3  4  1  0
  4  5  2  0
  5  6  1  0
  6  7  2  0
  7  8  1  0
  8  9  2  0
  9 10  1  0
 10 11  2  0
 11 12  1  0
 12 13  1  0
 13 14  2  0
 13 15  1  0
 15 16  1  0
 16 17  2  0
 17 18  1  0
 18 19  2  0
 19 20  1  0
 20 21  2  0
 20 22  1  0
 22 23  1  0
 22 24  1  0
 22 25  1  0
 11 26  1  0
 26 27  2  0
 27  4  1  0
 26  7  1  0
 21 16  1  0
M  END
>  <Molecule>  (382) 
CHEMBL2007375

>  <Standard Type>  (382) 
Ki

>  <Standard Relation>  (382) 
>

>  <Standard Value>  (382) 
5011.87

>  <Standard Units>  (382) 
nM

>  <pChEMBL Value>  (382) 
nan

>  <Comment>  (382) 
inactive

>  <Compound Key>  (382) 
SID103904894

>  <Assay>  (382) 
CHEMBL1963742

>  <Assay Description>  (382) 
PUBCHEM_BIOASSAY: Navigating the Kinome. (Class of assay: other) Panel member name: JAK3

>  <BAO Format>  (382) 
assay format

>  <Target>  (382) 
CHEMBL2148

>  <Target Pref. Name>  (382) 
Tyrosine-protein kinase JAK3

>  <Target Organism>  (382) 
Homo sapiens

>  <Target Type>  (382) 
SINGLE PROTEIN

>  <Document>  (382) 
CHEMBL1201862

>  <Source>  (382) 
PubChem BioAssays

>  <Max Phase>  (382) 
0

>  <#Ro5 Violations>  (382) 
0

>  <Molecular Weight>  (382) 
370.33

>  <Ligand Efficiency BEI>  (382) 
nan

>  <Ligand Efficiency LE>  (382) 
nan

>  <Ligand Efficiency LLE>  (382) 
nan

>  <Ligand Efficiency SEI>  (382) 
nan

>  <ALogP>  (382) 
4.66

>  <Assay Organism>  (382) 
nan

>  <Assay Tissue ChEMBL ID>  (382) 
nan

>  <Assay Tissue Name>  (382) 
nan

>  <Assay Cell Type>  (382) 
nan

>  <Assay Subcellular Fraction>  (382) 
nan

>  <Organism Tax ID>  (382) 
9606

>  <BAO Format ID>  (382) 
BAO_0000019

>  <Published Type>  (382) 
nan

>  <Published Relation>  (382) 
nan

>  <Published Value>  (382) 
nan

>  <Published Units>  (382) 
nan

>  <Canonical Smiles>  (382) 
CC#Cc1ccc2nccc(NC(=O)Nc3cccc(n3)C(F)(F)F)c2c1

>  <Data Validity Comment>  (382) 
nan

>  <Document Journal>  (382) 
nan

>  <Document Year>  (382) 
nan

>  <SRC ID>  (382) 
7

>  <UO Units>  (382) 
UO_0000065

>  <Potential Duplicate>  (382) 
False

>  <Class>  (382) 
0

$$$$

     RDKit          2D

 42 47  0  0  0  0  0  0  0  0999 V2000
   -3.7548   -2.1855    0.0000 C   0  0  0  0  0  0  0  0  0  0  0  0
   -2.6401   -3.1891    0.0000 C   0  0  0  0  0  0  0  0  0  0  0  0
   -1.2135   -2.7256    0.0000 N   0  0  0  0  0  0  0  0  0  0  0  0
   -0.0000   -3.6073    0.0000 C   0  0  0  0  0  0  0  0  0  0  0  0
    1.2135   -2.7256    0.0000 N   0  0  0  0  0  0  0  0  0  0  0  0
    0.7500   -1.2990    0.0000 C   0  0  0  0  0  0  0  0  0  0  0  0
    1.5000    0.0000    0.0000 C   0  0  0  0  0  0  0  0  0  0  0  0
    0.7500    1.2990    0.0000 N   0  0  0  0  0  0  0  0  0  0  0  0
   -0.7500    1.2990    0.0000 C   0  0  0  0  0  0  0  0  0  0  0  0
   -1.5000    2.5981    0.0000 O   0  0  0  0  0  0  0  0  0  0  0  0
   -0.7500    3.8971    0.0000 C   0  0  0  0  0  0  0  0  0  0  0  0
    0.7500    3.8971    0.0000 C   0  0  0  0  0  0  0  0  0  0  0  0
    1.5000    5.1962    0.0000 C   0  0  0  0  0  0  0  0  0  0  0  0
    0.7500    6.4952    0.0000 C   0  0  0  0  0  0  0  0  0  0  0  0
   -0.7500    6.4952    0.0000 C   0  0  0  0  0  0  0  0  0  0  0  0
   -1.5000    7.7942    0.0000 N   0  0  0  0  0  0  0  0  0  0  0  0
   -0.7500    9.0933    0.0000 C   0  0  0  0  0  0  0  0  0  0  0  0
    0.7500    9.0933    0.0000 O   0  0  0  0  0  0  0  0  0  0  0  0
   -1.5000   10.3923    0.0000 C   0  0  0  0  0  0  0  0  0  0  0  0
   -0.7500   11.6913    0.0000 C   0  0  0  0  0  0  0  0  0  0  0  0
   -1.5000   12.9904    0.0000 C   0  0  0  0  0  0  0  0  0  0  0  0
   -3.0000   12.9904    0.0000 C   0  0  0  0  0  0  0  0  0  0  0  0
   -3.7500   14.2894    0.0000 O   0  0  0  0  0  0  0  0  0  0  0  0
   -3.0000   15.5885    0.0000 C   0  0  0  0  0  0  0  0  0  0  0  0
   -3.7500   16.8875    0.0000 C   0  0  0  0  0  0  0  0  0  0  0  0
   -3.0000   18.1865    0.0000 N   0  0  0  0  0  0  0  0  0  0  0  0
   -1.5000   18.1865    0.0000 C   0  0  0  0  0  0  0  0  0  0  0  0
   -0.7500   19.4856    0.0000 C   0  0  0  0  0  0  0  0  0  0  0  0
   -1.5000   20.7846    0.0000 O   0  0  0  0  0  0  0  0  0  0  0  0
   -3.0000   20.7846    0.0000 C   0  0  0  0  0  0  0  0  0  0  0  0
   -3.7500   19.4856    0.0000 C   0  0  0  0  0  0  0  0  0  0  0  0
   -3.7500   11.6913    0.0000 C   0  0  0  0  0  0  0  0  0  0  0  0
   -3.0000   10.3923    0.0000 C   0  0  0  0  0  0  0  0  0  0  0  0
   -1.5000    5.1962    0.0000 C   0  0  0  0  0  0  0  0  0  0  0  0
   -1.5000    0.0000    0.0000 C   0  0  0  0  0  0  0  0  0  0  0  0
   -0.7500   -1.2990    0.0000 C   0  0  0  0  0  0  0  0  0  0  0  0
   -0.0000   -5.1073    0.0000 C   0  0  0  0  0  0  0  0  0  0  0  0
    1.2135   -5.9890    0.0000 N   0  0  0  0  0  0  0  0  0  0  0  0
    0.7500   -7.4156    0.0000 O   0  0  0  0  0  0  0  0  0  0  0  0
   -0.7500   -7.4156    0.0000 N   0  0  0  0  0  0  0  0  0  0  0  0
   -1.2135   -5.9890    0.0000 C   0  0  0  0  0  0  0  0  0  0  0  0
   -2.6401   -5.5255    0.0000 N   0  0  0  0  0  0  0  0  0  0  0  0
  1  2  1  0
  2  3  1  0
  3  4  1  0
  4  5  2  0
  5  6  1  0
  6  7  2  0
  7  8  1  0
  8  9  2  0
  9 10  1  0
 10 11  1  0
 11 12  2  0
 12 13  1  0
 13 14  2  0
 14 15  1  0
 15 16  1  0
 16 17  1  0
 17 18  2  0
 17 19  1  0
 19 20  2  0
 20 21  1  0
 21 22  2  0
 22 23  1  0
 23 24  1  0
 24 25  1  0
 25 26  1  0
 26 27  1  0
 27 28  1  0
 28 29  1  0
 29 30  1  0
 30 31  1  0
 22 32  1  0
 32 33  2  0
 15 34  2  0
  9 35  1  0
 35 36  2  0
  4 37  1  0
 37 38  2  0
 38 39  1  0
 39 40  1  0
 40 41  2  0
 41 42  1  0
 36  3  1  0
 36  6  1  0
 34 11  1  0
 33 19  1  0
 31 26  1  0
 41 37  1  0
M  END
>  <Molecule>  (383) 
CHEMBL220241

>  <Standard Type>  (383) 
Ki

>  <Standard Relation>  (383) 
>

>  <Standard Value>  (383) 
1584.89

>  <Standard Units>  (383) 
nM

>  <pChEMBL Value>  (383) 
nan

>  <Comment>  (383) 
inactive

>  <Compound Key>  (383) 
SID103905674

>  <Assay>  (383) 
CHEMBL1963742

>  <Assay Description>  (383) 
PUBCHEM_BIOASSAY: Navigating the Kinome. (Class of assay: other) Panel member name: JAK3

>  <BAO Format>  (383) 
assay format

>  <Target>  (383) 
CHEMBL2148

>  <Target Pref. Name>  (383) 
Tyrosine-protein kinase JAK3

>  <Target Organism>  (383) 
Homo sapiens

>  <Target Type>  (383) 
SINGLE PROTEIN

>  <Document>  (383) 
CHEMBL1201862

>  <Source>  (383) 
PubChem BioAssays

>  <Max Phase>  (383) 
0

>  <#Ro5 Violations>  (383) 
2

>  <Molecular Weight>  (383) 
570.61

>  <Ligand Efficiency BEI>  (383) 
nan

>  <Ligand Efficiency LE>  (383) 
nan

>  <Ligand Efficiency LLE>  (383) 
nan

>  <Ligand Efficiency SEI>  (383) 
nan

>  <ALogP>  (383) 
3.84

>  <Assay Organism>  (383) 
nan

>  <Assay Tissue ChEMBL ID>  (383) 
nan

>  <Assay Tissue Name>  (383) 
nan

>  <Assay Cell Type>  (383) 
nan

>  <Assay Subcellular Fraction>  (383) 
nan

>  <Organism Tax ID>  (383) 
9606

>  <BAO Format ID>  (383) 
BAO_0000019

>  <Published Type>  (383) 
nan

>  <Published Relation>  (383) 
nan

>  <Published Value>  (383) 
nan

>  <Published Units>  (383) 
nan

>  <Canonical Smiles>  (383) 
CCn1c(nc2cnc(Oc3cccc(NC(=O)c4ccc(OCCN5CCOCC5)cc4)c3)cc12)c6nonc6N

>  <Data Validity Comment>  (383) 
nan

>  <Document Journal>  (383) 
nan

>  <Document Year>  (383) 
nan

>  <SRC ID>  (383) 
7

>  <UO Units>  (383) 
UO_0000065

>  <Potential Duplicate>  (383) 
False

>  <Class>  (383) 
0

$$$$

     RDKit          2D

 18 20  0  0  0  0  0  0  0  0999 V2000
   -3.0826   -2.6480    0.0000 C   0  0  0  0  0  0  0  0  0  0  0  0
   -2.7707   -1.1807    0.0000 C   0  0  0  0  0  0  0  0  0  0  0  0
   -1.3442   -0.7172    0.0000 O   0  0  0  0  0  0  0  0  0  0  0  0
   -3.8855   -0.1771    0.0000 C   0  0  0  0  0  0  0  0  0  0  0  0
   -5.3120   -0.6406    0.0000 C   0  0  0  0  0  0  0  0  0  0  0  0
   -6.4268    0.3631    0.0000 C   0  0  0  0  0  0  0  0  0  0  0  0
   -6.1149    1.8303    0.0000 C   0  0  0  0  0  0  0  0  0  0  0  0
   -4.6883    2.2939    0.0000 C   0  0  0  0  0  0  0  0  0  0  0  0
   -3.5736    1.2902    0.0000 C   0  0  0  0  0  0  0  0  0  0  0  0
   -2.1470    1.7537    0.0000 C   0  0  0  0  0  0  0  0  0  0  0  0
   -1.0323    0.7500    0.0000 N   0  0  0  0  0  0  0  0  0  0  0  0
    0.3943    1.2135    0.0000 C   0  0  0  0  0  0  0  0  0  0  0  0
    0.7062    2.6807    0.0000 N   0  0  0  0  0  0  0  0  0  0  0  0
   -0.4086    3.6844    0.0000 C   0  0  0  0  0  0  0  0  0  0  0  0
   -0.4086    5.1844    0.0000 N   0  0  0  0  0  0  0  0  0  0  0  0
   -1.8351    5.6480    0.0000 C   0  0  0  0  0  0  0  0  0  0  0  0
   -2.7168    4.4344    0.0000 C   0  0  0  0  0  0  0  0  0  0  0  0
   -1.8351    3.2209    0.0000 C   0  0  0  0  0  0  0  0  0  0  0  0
  1  2  1  0
  2  3  2  0
  2  4  1  0
  4  5  2  0
  5  6  1  0
  6  7  2  0
  7  8  1  0
  8  9  2  0
  9 10  1  0
 10 11  2  0
 11 12  1  0
 12 13  2  0
 13 14  1  0
 14 15  1  0
 15 16  1  0
 16 17  2  0
 17 18  1  0
  9  4  1  0
 18 10  1  0
 18 14  2  0
M  END
>  <Molecule>  (384) 
CHEMBL1977931

>  <Standard Type>  (384) 
Ki

>  <Standard Relation>  (384) 
=

>  <Standard Value>  (384) 
79432.82

>  <Standard Units>  (384) 
nM

>  <pChEMBL Value>  (384) 
4.1

>  <Comment>  (384) 
active

>  <Compound Key>  (384) 
SID103905274

>  <Assay>  (384) 
CHEMBL1963742

>  <Assay Description>  (384) 
PUBCHEM_BIOASSAY: Navigating the Kinome. (Class of assay: other) Panel member name: JAK3

>  <BAO Format>  (384) 
assay format

>  <Target>  (384) 
CHEMBL2148

>  <Target Pref. Name>  (384) 
Tyrosine-protein kinase JAK3

>  <Target Organism>  (384) 
Homo sapiens

>  <Target Type>  (384) 
SINGLE PROTEIN

>  <Document>  (384) 
CHEMBL1201862

>  <Source>  (384) 
PubChem BioAssays

>  <Max Phase>  (384) 
0

>  <#Ro5 Violations>  (384) 
0

>  <Molecular Weight>  (384) 
237.26

>  <Ligand Efficiency BEI>  (384) 
nan

>  <Ligand Efficiency LE>  (384) 
nan

>  <Ligand Efficiency LLE>  (384) 
nan

>  <Ligand Efficiency SEI>  (384) 
nan

>  <ALogP>  (384) 
2.83

>  <Assay Organism>  (384) 
nan

>  <Assay Tissue ChEMBL ID>  (384) 
nan

>  <Assay Tissue Name>  (384) 
nan

>  <Assay Cell Type>  (384) 
nan

>  <Assay Subcellular Fraction>  (384) 
nan

>  <Organism Tax ID>  (384) 
9606

>  <BAO Format ID>  (384) 
BAO_0000019

>  <Published Type>  (384) 
nan

>  <Published Relation>  (384) 
nan

>  <Published Value>  (384) 
nan

>  <Published Units>  (384) 
nan

>  <Canonical Smiles>  (384) 
CC(=O)c1ccccc1c2ncnc3[nH]ccc23

>  <Data Validity Comment>  (384) 
nan

>  <Document Journal>  (384) 
nan

>  <Document Year>  (384) 
nan

>  <SRC ID>  (384) 
7

>  <UO Units>  (384) 
UO_0000065

>  <Potential Duplicate>  (384) 
False

>  <Class>  (384) 
1

$$$$

     RDKit          2D

 22 24  0  0  0  0  0  0  0  0999 V2000
    3.0000    0.0000    0.0000 C   0  0  0  0  0  0  0  0  0  0  0  0
    1.5000    0.0000    0.0000 C   0  0  0  0  0  0  0  0  0  0  0  0
    0.7500   -1.2990    0.0000 C   0  0  0  0  0  0  0  0  0  0  0  0
   -0.7500   -1.2990    0.0000 C   0  0  0  0  0  0  0  0  0  0  0  0
   -1.5000    0.0000    0.0000 C   0  0  0  0  0  0  0  0  0  0  0  0
   -3.0000    0.0000    0.0000 C   0  0  0  0  0  0  0  0  0  0  0  0
   -3.7500    1.2990    0.0000 N   0  0  0  0  0  0  0  0  0  0  0  0
   -5.2500    1.2990    0.0000 C   0  0  0  0  0  0  0  0  0  0  0  0
   -6.3107    2.3597    0.0000 C   0  0  0  0  0  0  0  0  0  0  0  0
   -6.3107    3.8597    0.0000 N   0  0  0  0  0  0  0  0  0  0  0  0
   -5.0116    4.6097    0.0000 C   0  0  0  0  0  0  0  0  0  0  0  0
   -3.7126    3.8597    0.0000 C   0  0  0  0  0  0  0  0  0  0  0  0
   -2.4135    4.6097    0.0000 C   0  0  0  0  0  0  0  0  0  0  0  0
   -2.4135    6.1097    0.0000 N   0  0  0  0  0  0  0  0  0  0  0  0
   -3.7126    6.8597    0.0000 C   0  0  0  0  0  0  0  0  0  0  0  0
   -5.0116    6.1097    0.0000 C   0  0  0  0  0  0  0  0  0  0  0  0
   -7.3713    1.2990    0.0000 C   0  0  0  0  0  0  0  0  0  0  0  0
   -8.8713    1.2990    0.0000 O   0  0  0  0  0  0  0  0  0  0  0  0
   -6.3107    0.2384    0.0000 C   0  0  0  0  0  0  0  0  0  0  0  0
   -6.3107   -1.2616    0.0000 O   0  0  0  0  0  0  0  0  0  0  0  0
   -0.7500    1.2990    0.0000 C   0  0  0  0  0  0  0  0  0  0  0  0
    0.7500    1.2990    0.0000 C   0  0  0  0  0  0  0  0  0  0  0  0
  1  2  1  0
  2  3  2  0
  3  4  1  0
  4  5  2  0
  5  6  1  0
  6  7  1  0
  7  8  1  0
  8  9  2  0
  9 10  1  0
 10 11  1  0
 11 12  2  0
 12 13  1  0
 13 14  2  0
 14 15  1  0
 15 16  2  0
  9 17  1  0
 17 18  2  0
 17 19  1  0
 19 20  2  0
  5 21  1  0
 21 22  2  0
 22  2  1  0
 19  8  1  0
 16 11  1  0
M  END
>  <Molecule>  (385) 
CHEMBL1994864

>  <Standard Type>  (385) 
Ki

>  <Standard Relation>  (385) 
>

>  <Standard Value>  (385) 
1584.89

>  <Standard Units>  (385) 
nM

>  <pChEMBL Value>  (385) 
nan

>  <Comment>  (385) 
inactive

>  <Compound Key>  (385) 
SID103904955

>  <Assay>  (385) 
CHEMBL1963742

>  <Assay Description>  (385) 
PUBCHEM_BIOASSAY: Navigating the Kinome. (Class of assay: other) Panel member name: JAK3

>  <BAO Format>  (385) 
assay format

>  <Target>  (385) 
CHEMBL2148

>  <Target Pref. Name>  (385) 
Tyrosine-protein kinase JAK3

>  <Target Organism>  (385) 
Homo sapiens

>  <Target Type>  (385) 
SINGLE PROTEIN

>  <Document>  (385) 
CHEMBL1201862

>  <Source>  (385) 
PubChem BioAssays

>  <Max Phase>  (385) 
0

>  <#Ro5 Violations>  (385) 
0

>  <Molecular Weight>  (385) 
293.33

>  <Ligand Efficiency BEI>  (385) 
nan

>  <Ligand Efficiency LE>  (385) 
nan

>  <Ligand Efficiency LLE>  (385) 
nan

>  <Ligand Efficiency SEI>  (385) 
nan

>  <ALogP>  (385) 
2.34

>  <Assay Organism>  (385) 
nan

>  <Assay Tissue ChEMBL ID>  (385) 
nan

>  <Assay Tissue Name>  (385) 
nan

>  <Assay Cell Type>  (385) 
nan

>  <Assay Subcellular Fraction>  (385) 
nan

>  <Organism Tax ID>  (385) 
9606

>  <BAO Format ID>  (385) 
BAO_0000019

>  <Published Type>  (385) 
nan

>  <Published Relation>  (385) 
nan

>  <Published Value>  (385) 
nan

>  <Published Units>  (385) 
nan

>  <Canonical Smiles>  (385) 
Cc1ccc(CNC2=C(Nc3ccncc3)C(=O)C2=O)cc1

>  <Data Validity Comment>  (385) 
nan

>  <Document Journal>  (385) 
nan

>  <Document Year>  (385) 
nan

>  <SRC ID>  (385) 
7

>  <UO Units>  (385) 
UO_0000065

>  <Potential Duplicate>  (385) 
False

>  <Class>  (385) 
0

$$$$

     RDKit          2D

 38 41  0  0  0  0  0  0  0  0999 V2000
    4.4938   -3.3551    0.0000 C   0  0  0  0  0  0  0  0  0  0  0  0
    3.4901   -4.4698    0.0000 C   0  0  0  0  0  0  0  0  0  0  0  0
    3.9536   -5.8964    0.0000 C   0  0  0  0  0  0  0  0  0  0  0  0
    2.0229   -4.1579    0.0000 C   0  0  0  0  0  0  0  0  0  0  0  0
    1.5593   -2.7313    0.0000 C   0  0  0  0  0  0  0  0  0  0  0  0
    2.5630   -1.6166    0.0000 O   0  0  0  0  0  0  0  0  0  0  0  0
    1.0192   -5.2726    0.0000 N   0  0  0  0  0  0  0  0  0  0  0  0
   -0.4481   -4.9608    0.0000 C   0  0  0  0  0  0  0  0  0  0  0  0
   -0.9116   -3.5342    0.0000 O   0  0  0  0  0  0  0  0  0  0  0  0
   -1.4518   -6.0755    0.0000 C   0  0  0  0  0  0  0  0  0  0  0  0
   -0.9882   -7.5021    0.0000 C   0  0  0  0  0  0  0  0  0  0  0  0
   -1.9919   -8.6168    0.0000 C   0  0  0  0  0  0  0  0  0  0  0  0
   -3.4591   -8.3049    0.0000 C   0  0  0  0  0  0  0  0  0  0  0  0
   -3.9227   -6.8783    0.0000 C   0  0  0  0  0  0  0  0  0  0  0  0
   -2.9190   -5.7636    0.0000 C   0  0  0  0  0  0  0  0  0  0  0  0
   -5.3899   -6.5665    0.0000 N   0  0  0  0  0  0  0  0  0  0  0  0
   -6.5046   -7.5702    0.0000 N   0  0  0  0  0  0  0  0  0  0  0  0
   -7.8037   -6.8202    0.0000 C   0  0  0  0  0  0  0  0  0  0  0  0
   -7.4918   -5.3529    0.0000 C   0  0  0  0  0  0  0  0  0  0  0  0
   -6.0000   -5.1962    0.0000 C   0  0  0  0  0  0  0  0  0  0  0  0
   -5.2500   -3.8971    0.0000 N   0  0  0  0  0  0  0  0  0  0  0  0
   -6.0000   -2.5981    0.0000 C   0  0  0  0  0  0  0  0  0  0  0  0
   -7.5000   -2.5981    0.0000 O   0  0  0  0  0  0  0  0  0  0  0  0
   -5.2500   -1.2990    0.0000 N   0  0  0  0  0  0  0  0  0  0  0  0
   -6.0000    0.0000    0.0000 C   0  0  0  0  0  0  0  0  0  0  0  0
   -7.5000    0.0000    0.0000 C   0  0  0  0  0  0  0  0  0  0  0  0
   -8.2500    1.2990    0.0000 C   0  0  0  0  0  0  0  0  0  0  0  0
   -7.5000    2.5981    0.0000 C   0  0  0  0  0  0  0  0  0  0  0  0
   -6.0000    2.5981    0.0000 C   0  0  0  0  0  0  0  0  0  0  0  0
   -5.2500    3.8971    0.0000 C   0  0  0  0  0  0  0  0  0  0  0  0
   -3.7500    3.8971    0.0000 C   0  0  0  0  0  0  0  0  0  0  0  0
   -3.0000    2.5981    0.0000 C   0  0  0  0  0  0  0  0  0  0  0  0
   -3.7500    1.2990    0.0000 C   0  0  0  0  0  0  0  0  0  0  0  0
   -5.2500    1.2990    0.0000 C   0  0  0  0  0  0  0  0  0  0  0  0
   -9.1740   -7.4303    0.0000 C   0  0  0  0  0  0  0  0  0  0  0  0
   -9.7841   -6.0600    0.0000 C   0  0  0  0  0  0  0  0  0  0  0  0
   -8.5639   -8.8006    0.0000 C   0  0  0  0  0  0  0  0  0  0  0  0
  -10.5443   -8.0404    0.0000 C   0  0  0  0  0  0  0  0  0  0  0  0
  1  2  1  0
  2  3  1  0
  2  4  1  0
  4  5  1  0
  5  6  1  0
  4  7  1  0
  7  8  1  0
  8  9  2  0
  8 10  1  0
 10 11  2  0
 11 12  1  0
 12 13  2  0
 13 14  1  0
 14 15  2  0
 14 16  1  0
 16 17  1  0
 17 18  2  0
 18 19  1  0
 19 20  2  0
 20 21  1  0
 21 22  1  0
 22 23  2  0
 22 24  1  0
 24 25  1  0
 25 26  2  0
 26 27  1  0
 27 28  2  0
 28 29  1  0
 29 30  2  0
 30 31  1  0
 31 32  2  0
 32 33  1  0
 33 34  2  0
 18 35  1  0
 35 36  1  0
 35 37  1  0
 35 38  1  0
 15 10  1  0
 20 16  1  0
 34 25  1  0
 34 29  1  0
M  END
>  <Molecule>  (386) 
CHEMBL1971223

>  <Standard Type>  (386) 
Ki

>  <Standard Relation>  (386) 
>

>  <Standard Value>  (386) 
5011.87

>  <Standard Units>  (386) 
nM

>  <pChEMBL Value>  (386) 
nan

>  <Comment>  (386) 
inactive

>  <Compound Key>  (386) 
SID103904827

>  <Assay>  (386) 
CHEMBL1963742

>  <Assay Description>  (386) 
PUBCHEM_BIOASSAY: Navigating the Kinome. (Class of assay: other) Panel member name: JAK3

>  <BAO Format>  (386) 
assay format

>  <Target>  (386) 
CHEMBL2148

>  <Target Pref. Name>  (386) 
Tyrosine-protein kinase JAK3

>  <Target Organism>  (386) 
Homo sapiens

>  <Target Type>  (386) 
SINGLE PROTEIN

>  <Document>  (386) 
CHEMBL1201862

>  <Source>  (386) 
PubChem BioAssays

>  <Max Phase>  (386) 
0

>  <#Ro5 Violations>  (386) 
2

>  <Molecular Weight>  (386) 
513.64

>  <Ligand Efficiency BEI>  (386) 
nan

>  <Ligand Efficiency LE>  (386) 
nan

>  <Ligand Efficiency LLE>  (386) 
nan

>  <Ligand Efficiency SEI>  (386) 
nan

>  <ALogP>  (386) 
5.71

>  <Assay Organism>  (386) 
nan

>  <Assay Tissue ChEMBL ID>  (386) 
nan

>  <Assay Tissue Name>  (386) 
nan

>  <Assay Cell Type>  (386) 
nan

>  <Assay Subcellular Fraction>  (386) 
nan

>  <Organism Tax ID>  (386) 
9606

>  <BAO Format ID>  (386) 
BAO_0000019

>  <Published Type>  (386) 
nan

>  <Published Relation>  (386) 
nan

>  <Published Value>  (386) 
nan

>  <Published Units>  (386) 
nan

>  <Canonical Smiles>  (386) 
CC(C)C(CO)NC(=O)c1cccc(c1)n2nc(cc2NC(=O)Nc3cccc4ccccc34)C(C)(C)C

>  <Data Validity Comment>  (386) 
nan

>  <Document Journal>  (386) 
nan

>  <Document Year>  (386) 
nan

>  <SRC ID>  (386) 
7

>  <UO Units>  (386) 
UO_0000065

>  <Potential Duplicate>  (386) 
False

>  <Class>  (386) 
0

$$$$

     RDKit          2D

 29 32  0  0  0  0  0  0  0  0999 V2000
  -11.2659    4.4991    0.0000 C   0  0  0  0  0  0  0  0  0  0  0  0
   -9.7741    4.6559    0.0000 O   0  0  0  0  0  0  0  0  0  0  0  0
   -8.8924    3.4424    0.0000 C   0  0  0  0  0  0  0  0  0  0  0  0
   -7.4006    3.5992    0.0000 C   0  0  0  0  0  0  0  0  0  0  0  0
   -6.5190    2.3856    0.0000 N   0  0  0  0  0  0  0  0  0  0  0  0
   -7.1291    1.0153    0.0000 C   0  0  0  0  0  0  0  0  0  0  0  0
   -5.0272    2.5424    0.0000 C   0  0  0  0  0  0  0  0  0  0  0  0
   -4.1455    1.3289    0.0000 O   0  0  0  0  0  0  0  0  0  0  0  0
   -4.4171    3.9127    0.0000 C   0  0  0  0  0  0  0  0  0  0  0  0
   -2.9499    4.2246    0.0000 C   0  0  0  0  0  0  0  0  0  0  0  0
   -2.7931    5.7164    0.0000 N   0  0  0  0  0  0  0  0  0  0  0  0
   -4.1634    6.3265    0.0000 N   0  0  0  0  0  0  0  0  0  0  0  0
   -5.1671    5.2118    0.0000 N   0  0  0  0  0  0  0  0  0  0  0  0
   -6.6589    5.3686    0.0000 C   0  0  0  0  0  0  0  0  0  0  0  0
   -7.2690    6.7389    0.0000 C   0  0  0  0  0  0  0  0  0  0  0  0
   -6.3873    7.9524    0.0000 C   0  0  0  0  0  0  0  0  0  0  0  0
   -6.9974    9.3227    0.0000 C   0  0  0  0  0  0  0  0  0  0  0  0
   -8.4892    9.4795    0.0000 C   0  0  0  0  0  0  0  0  0  0  0  0
   -9.3709    8.2660    0.0000 C   0  0  0  0  0  0  0  0  0  0  0  0
   -8.7607    6.8957    0.0000 C   0  0  0  0  0  0  0  0  0  0  0  0
   -1.8351    3.2209    0.0000 C   0  0  0  0  0  0  0  0  0  0  0  0
   -0.4086    3.6844    0.0000 C   0  0  0  0  0  0  0  0  0  0  0  0
    0.7062    2.6807    0.0000 C   0  0  0  0  0  0  0  0  0  0  0  0
    0.3943    1.2135    0.0000 C   0  0  0  0  0  0  0  0  0  0  0  0
    1.2760    0.0000    0.0000 N   0  0  0  0  0  0  0  0  0  0  0  0
    0.3943   -1.2135    0.0000 N   0  0  0  0  0  0  0  0  0  0  0  0
   -1.0323   -0.7500    0.0000 C   0  0  0  0  0  0  0  0  0  0  0  0
   -1.0323    0.7500    0.0000 C   0  0  0  0  0  0  0  0  0  0  0  0
   -2.1470    1.7537    0.0000 C   0  0  0  0  0  0  0  0  0  0  0  0
  1  2  1  0
  2  3  1  0
  3  4  1  0
  4  5  1  0
  5  6  1  0
  5  7  1  0
  7  8  2  0
  7  9  1  0
  9 10  2  0
 10 11  1  0
 11 12  2  0
 12 13  1  0
 13 14  1  0
 14 15  1  0
 15 16  2  0
 16 17  1  0
 17 18  2  0
 18 19  1  0
 19 20  2  0
 10 21  1  0
 21 22  2  0
 22 23  1  0
 23 24  2  0
 24 25  1  0
 25 26  1  0
 26 27  2  0
 27 28  1  0
 28 29  2  0
 13  9  1  0
 20 15  1  0
 29 21  1  0
 28 24  1  0
M  END
>  <Molecule>  (387) 
CHEMBL1986970

>  <Standard Type>  (387) 
Ki

>  <Standard Relation>  (387) 
>

>  <Standard Value>  (387) 
1584.89

>  <Standard Units>  (387) 
nM

>  <pChEMBL Value>  (387) 
nan

>  <Comment>  (387) 
inactive

>  <Compound Key>  (387) 
SID103904516

>  <Assay>  (387) 
CHEMBL1963742

>  <Assay Description>  (387) 
PUBCHEM_BIOASSAY: Navigating the Kinome. (Class of assay: other) Panel member name: JAK3

>  <BAO Format>  (387) 
assay format

>  <Target>  (387) 
CHEMBL2148

>  <Target Pref. Name>  (387) 
Tyrosine-protein kinase JAK3

>  <Target Organism>  (387) 
Homo sapiens

>  <Target Type>  (387) 
SINGLE PROTEIN

>  <Document>  (387) 
CHEMBL1201862

>  <Source>  (387) 
PubChem BioAssays

>  <Max Phase>  (387) 
0

>  <#Ro5 Violations>  (387) 
0

>  <Molecular Weight>  (387) 
390.45

>  <Ligand Efficiency BEI>  (387) 
nan

>  <Ligand Efficiency LE>  (387) 
nan

>  <Ligand Efficiency LLE>  (387) 
nan

>  <Ligand Efficiency SEI>  (387) 
nan

>  <ALogP>  (387) 
2.59

>  <Assay Organism>  (387) 
nan

>  <Assay Tissue ChEMBL ID>  (387) 
nan

>  <Assay Tissue Name>  (387) 
nan

>  <Assay Cell Type>  (387) 
nan

>  <Assay Subcellular Fraction>  (387) 
nan

>  <Organism Tax ID>  (387) 
9606

>  <BAO Format ID>  (387) 
BAO_0000019

>  <Published Type>  (387) 
nan

>  <Published Relation>  (387) 
nan

>  <Published Value>  (387) 
nan

>  <Published Units>  (387) 
nan

>  <Canonical Smiles>  (387) 
COCCN(C)C(=O)c1c(nnn1Cc2ccccc2)c3ccc4[nH]ncc4c3

>  <Data Validity Comment>  (387) 
nan

>  <Document Journal>  (387) 
nan

>  <Document Year>  (387) 
nan

>  <SRC ID>  (387) 
7

>  <UO Units>  (387) 
UO_0000065

>  <Potential Duplicate>  (387) 
False

>  <Class>  (387) 
0

$$$$

     RDKit          2D

 30 33  0  0  0  0  0  0  0  0999 V2000
  -16.2822   -4.8900    0.0000 C   0  0  0  0  0  0  0  0  0  0  0  0
  -14.8556   -4.4264    0.0000 C   0  0  0  0  0  0  0  0  0  0  0  0
  -14.5438   -2.9592    0.0000 C   0  0  0  0  0  0  0  0  0  0  0  0
  -13.1172   -2.4957    0.0000 C   0  0  0  0  0  0  0  0  0  0  0  0
  -12.0025   -3.4994    0.0000 C   0  0  0  0  0  0  0  0  0  0  0  0
  -12.3143   -4.9666    0.0000 C   0  0  0  0  0  0  0  0  0  0  0  0
  -11.1996   -5.9703    0.0000 N   0  0  0  0  0  0  0  0  0  0  0  0
   -9.7730   -5.5068    0.0000 C   0  0  0  0  0  0  0  0  0  0  0  0
   -9.4612   -4.0396    0.0000 O   0  0  0  0  0  0  0  0  0  0  0  0
   -8.6583   -6.5105    0.0000 N   0  0  0  0  0  0  0  0  0  0  0  0
   -7.2317   -6.0469    0.0000 C   0  0  0  0  0  0  0  0  0  0  0  0
   -6.1170   -7.0506    0.0000 C   0  0  0  0  0  0  0  0  0  0  0  0
   -4.6904   -6.5871    0.0000 C   0  0  0  0  0  0  0  0  0  0  0  0
   -4.3786   -5.1199    0.0000 C   0  0  0  0  0  0  0  0  0  0  0  0
   -2.9520   -4.6564    0.0000 N   0  0  0  0  0  0  0  0  0  0  0  0
   -2.6401   -3.1891    0.0000 C   0  0  0  0  0  0  0  0  0  0  0  0
   -3.7548   -2.1855    0.0000 O   0  0  0  0  0  0  0  0  0  0  0  0
   -1.2135   -2.7256    0.0000 C   0  0  0  0  0  0  0  0  0  0  0  0
    0.0000   -3.6073    0.0000 C   0  0  0  0  0  0  0  0  0  0  0  0
    1.2135   -2.7256    0.0000 S   0  0  0  0  0  0  0  0  0  0  0  0
    0.7500   -1.2990    0.0000 C   0  0  0  0  0  0  0  0  0  0  0  0
    1.5000    0.0000    0.0000 N   0  0  0  0  0  0  0  0  0  0  0  0
    0.7500    1.2990    0.0000 C   0  0  0  0  0  0  0  0  0  0  0  0
   -0.7500    1.2990    0.0000 N   0  0  0  0  0  0  0  0  0  0  0  0
   -1.5000    0.0000    0.0000 C   0  0  0  0  0  0  0  0  0  0  0  0
   -3.0000    0.0000    0.0000 N   0  0  0  0  0  0  0  0  0  0  0  0
   -0.7500   -1.2990    0.0000 C   0  0  0  0  0  0  0  0  0  0  0  0
   -5.4933   -4.1162    0.0000 C   0  0  0  0  0  0  0  0  0  0  0  0
   -6.9199   -4.5797    0.0000 C   0  0  0  0  0  0  0  0  0  0  0  0
  -13.7409   -5.4301    0.0000 C   0  0  0  0  0  0  0  0  0  0  0  0
  1  2  1  0
  2  3  2  0
  3  4  1  0
  4  5  2  0
  5  6  1  0
  6  7  1  0
  7  8  1  0
  8  9  2  0
  8 10  1  0
 10 11  1  0
 11 12  2  0
 12 13  1  0
 13 14  2  0
 14 15  1  0
 15 16  1  0
 16 17  2  0
 16 18  1  0
 18 19  2  0
 19 20  1  0
 20 21  1  0
 21 22  2  0
 22 23  1  0
 23 24  2  0
 24 25  1  0
 25 26  1  0
 25 27  2  0
 14 28  1  0
 28 29  2  0
  6 30  2  0
 30  2  1  0
 29 11  1  0
 27 18  1  0
 27 21  1  0
M  END
>  <Molecule>  (388) 
CHEMBL1965507

>  <Standard Type>  (388) 
Ki

>  <Standard Relation>  (388) 
=

>  <Standard Value>  (388) 
501.19

>  <Standard Units>  (388) 
nM

>  <pChEMBL Value>  (388) 
6.3

>  <Comment>  (388) 
active

>  <Compound Key>  (388) 
SID103904355

>  <Assay>  (388) 
CHEMBL1963742

>  <Assay Description>  (388) 
PUBCHEM_BIOASSAY: Navigating the Kinome. (Class of assay: other) Panel member name: JAK3

>  <BAO Format>  (388) 
assay format

>  <Target>  (388) 
CHEMBL2148

>  <Target Pref. Name>  (388) 
Tyrosine-protein kinase JAK3

>  <Target Organism>  (388) 
Homo sapiens

>  <Target Type>  (388) 
SINGLE PROTEIN

>  <Document>  (388) 
CHEMBL1201862

>  <Source>  (388) 
PubChem BioAssays

>  <Max Phase>  (388) 
0

>  <#Ro5 Violations>  (388) 
0

>  <Molecular Weight>  (388) 
418.48

>  <Ligand Efficiency BEI>  (388) 
nan

>  <Ligand Efficiency LE>  (388) 
nan

>  <Ligand Efficiency LLE>  (388) 
nan

>  <Ligand Efficiency SEI>  (388) 
nan

>  <ALogP>  (388) 
4.48

>  <Assay Organism>  (388) 
nan

>  <Assay Tissue ChEMBL ID>  (388) 
nan

>  <Assay Tissue Name>  (388) 
nan

>  <Assay Cell Type>  (388) 
nan

>  <Assay Subcellular Fraction>  (388) 
nan

>  <Organism Tax ID>  (388) 
9606

>  <BAO Format ID>  (388) 
BAO_0000019

>  <Published Type>  (388) 
nan

>  <Published Relation>  (388) 
nan

>  <Published Value>  (388) 
nan

>  <Published Units>  (388) 
nan

>  <Canonical Smiles>  (388) 
Cc1cccc(NC(=O)Nc2ccc(NC(=O)c3csc4ncnc(N)c34)cc2)c1

>  <Data Validity Comment>  (388) 
nan

>  <Document Journal>  (388) 
nan

>  <Document Year>  (388) 
nan

>  <SRC ID>  (388) 
7

>  <UO Units>  (388) 
UO_0000065

>  <Potential Duplicate>  (388) 
False

>  <Class>  (388) 
1

$$$$

     RDKit          2D

 44 50  0  0  0  0  0  0  0  0999 V2000
    0.5882   10.8010    0.0000 F   0  0  0  0  0  0  0  0  0  0  0  0
    2.0554   10.4891    0.0000 C   0  0  0  0  0  0  0  0  0  0  0  0
    3.0591   11.6038    0.0000 C   0  0  0  0  0  0  0  0  0  0  0  0
    4.5264   11.2919    0.0000 C   0  0  0  0  0  0  0  0  0  0  0  0
    4.9899    9.8654    0.0000 C   0  0  0  0  0  0  0  0  0  0  0  0
    3.9862    8.7506    0.0000 C   0  0  0  0  0  0  0  0  0  0  0  0
    4.4497    7.3241    0.0000 F   0  0  0  0  0  0  0  0  0  0  0  0
    2.5190    9.0625    0.0000 C   0  0  0  0  0  0  0  0  0  0  0  0
    1.5153    7.9478    0.0000 C   0  0  0  0  0  0  0  0  0  0  0  0
    1.9788    6.5212    0.0000 O   0  0  0  0  0  0  0  0  0  0  0  0
    0.0481    8.2597    0.0000 N   0  0  0  0  0  0  0  0  0  0  0  0
   -0.9556    7.1449    0.0000 C   0  0  0  0  0  0  0  0  0  0  0  0
   -2.4229    7.4568    0.0000 C   0  0  0  0  0  0  0  0  0  0  0  0
   -3.4266    6.3421    0.0000 C   0  0  0  0  0  0  0  0  0  0  0  0
   -2.9630    4.9155    0.0000 C   0  0  0  0  0  0  0  0  0  0  0  0
   -1.4958    4.6036    0.0000 C   0  0  0  0  0  0  0  0  0  0  0  0
   -0.4921    5.7184    0.0000 C   0  0  0  0  0  0  0  0  0  0  0  0
   -1.0323    3.1771    0.0000 C   0  0  0  0  0  0  0  0  0  0  0  0
    0.3943    2.7135    0.0000 N   0  0  0  0  0  0  0  0  0  0  0  0
    0.3943    1.2135    0.0000 C   0  0  0  0  0  0  0  0  0  0  0  0
    1.2760    0.0000    0.0000 S   0  0  0  0  0  0  0  0  0  0  0  0
    0.3943   -1.2135    0.0000 C   0  0  0  0  0  0  0  0  0  0  0  0
   -1.0323   -0.7500    0.0000 C   0  0  0  0  0  0  0  0  0  0  0  0
   -1.0323    0.7500    0.0000 N   0  0  0  0  0  0  0  0  0  0  0  0
   -1.9140    1.9635    0.0000 C   0  0  0  0  0  0  0  0  0  0  0  0
   -3.4140    1.9635    0.0000 C   0  0  0  0  0  0  0  0  0  0  0  0
   -4.1640    3.2626    0.0000 C   0  0  0  0  0  0  0  0  0  0  0  0
   -5.6640    3.2626    0.0000 C   0  0  0  0  0  0  0  0  0  0  0  0
   -6.4140    1.9635    0.0000 N   0  0  0  0  0  0  0  0  0  0  0  0
   -5.6640    0.6645    0.0000 C   0  0  0  0  0  0  0  0  0  0  0  0
   -6.4140   -0.6346    0.0000 N   0  0  0  0  0  0  0  0  0  0  0  0
   -7.9140   -0.6346    0.0000 C   0  0  0  0  0  0  0  0  0  0  0  0
   -8.6640    0.6645    0.0000 C   0  0  0  0  0  0  0  0  0  0  0  0
  -10.1640    0.6645    0.0000 C   0  0  0  0  0  0  0  0  0  0  0  0
  -10.9140   -0.6346    0.0000 C   0  0  0  0  0  0  0  0  0  0  0  0
  -10.1640   -1.9336    0.0000 C   0  0  0  0  0  0  0  0  0  0  0  0
   -8.6640   -1.9336    0.0000 C   0  0  0  0  0  0  0  0  0  0  0  0
  -10.9140   -3.2326    0.0000 N   0  0  0  0  0  0  0  0  0  0  0  0
  -10.3039   -4.6029    0.0000 C   0  0  0  0  0  0  0  0  0  0  0  0
  -11.4186   -5.6066    0.0000 C   0  0  0  0  0  0  0  0  0  0  0  0
  -12.7176   -4.8566    0.0000 C   0  0  0  0  0  0  0  0  0  0  0  0
  -12.4057   -3.3894    0.0000 C   0  0  0  0  0  0  0  0  0  0  0  0
  -13.4094   -2.2747    0.0000 O   0  0  0  0  0  0  0  0  0  0  0  0
   -4.1640    0.6645    0.0000 N   0  0  0  0  0  0  0  0  0  0  0  0
  1  2  1  0
  2  3  2  0
  3  4  1  0
  4  5  2  0
  5  6  1  0
  6  7  1  0
  6  8  2  0
  8  9  1  0
  9 10  2  0
  9 11  1  0
 11 12  1  0
 12 13  2  0
 13 14  1  0
 14 15  2  0
 15 16  1  0
 16 17  2  0
 16 18  1  0
 18 19  1  0
 19 20  2  0
 20 21  1  0
 21 22  1  0
 22 23  2  0
 23 24  1  0
 24 25  1  0
 25 26  1  0
 26 27  2  0
 27 28  1  0
 28 29  2  0
 29 30  1  0
 30 31  1  0
 31 32  1  0
 32 33  2  0
 33 34  1  0
 34 35  2  0
 35 36  1  0
 36 37  2  0
 36 38  1  0
 38 39  1  0
 39 40  1  0
 40 41  1  0
 41 42  1  0
 42 43  2  0
 30 44  2  0
  8  2  1  0
 17 12  1  0
 25 18  2  0
 24 20  1  0
 44 26  1  0
 37 32  1  0
 42 38  1  0
M  END
>  <Molecule>  (389) 
CHEMBL2006715

>  <Standard Type>  (389) 
Ki

>  <Standard Relation>  (389) 
=

>  <Standard Value>  (389) 
501.19

>  <Standard Units>  (389) 
nM

>  <pChEMBL Value>  (389) 
6.3

>  <Comment>  (389) 
active

>  <Compound Key>  (389) 
SID103904419

>  <Assay>  (389) 
CHEMBL1963742

>  <Assay Description>  (389) 
PUBCHEM_BIOASSAY: Navigating the Kinome. (Class of assay: other) Panel member name: JAK3

>  <BAO Format>  (389) 
assay format

>  <Target>  (389) 
CHEMBL2148

>  <Target Pref. Name>  (389) 
Tyrosine-protein kinase JAK3

>  <Target Organism>  (389) 
Homo sapiens

>  <Target Type>  (389) 
SINGLE PROTEIN

>  <Document>  (389) 
CHEMBL1201862

>  <Source>  (389) 
PubChem BioAssays

>  <Max Phase>  (389) 
0

>  <#Ro5 Violations>  (389) 
2

>  <Molecular Weight>  (389) 
607.65

>  <Ligand Efficiency BEI>  (389) 
nan

>  <Ligand Efficiency LE>  (389) 
nan

>  <Ligand Efficiency LLE>  (389) 
nan

>  <Ligand Efficiency SEI>  (389) 
nan

>  <ALogP>  (389) 
6.92

>  <Assay Organism>  (389) 
nan

>  <Assay Tissue ChEMBL ID>  (389) 
nan

>  <Assay Tissue Name>  (389) 
nan

>  <Assay Cell Type>  (389) 
nan

>  <Assay Subcellular Fraction>  (389) 
nan

>  <Organism Tax ID>  (389) 
9606

>  <BAO Format ID>  (389) 
BAO_0000019

>  <Published Type>  (389) 
nan

>  <Published Relation>  (389) 
nan

>  <Published Value>  (389) 
nan

>  <Published Units>  (389) 
nan

>  <Canonical Smiles>  (389) 
Fc1cccc(F)c1C(=O)Nc2cccc(c2)c3nc4sccn4c3c5ccnc(Nc6cccc(c6)N7CCCC7=O)n5

>  <Data Validity Comment>  (389) 
nan

>  <Document Journal>  (389) 
nan

>  <Document Year>  (389) 
nan

>  <SRC ID>  (389) 
7

>  <UO Units>  (389) 
UO_0000065

>  <Potential Duplicate>  (389) 
False

>  <Class>  (389) 
1

$$$$

     RDKit          2D

 26 28  0  0  0  0  0  0  0  0999 V2000
    4.5000    0.0000    0.0000 F   0  0  0  0  0  0  0  0  0  0  0  0
    3.0000    0.0000    0.0000 C   0  0  0  0  0  0  0  0  0  0  0  0
    3.0000   -1.5000    0.0000 F   0  0  0  0  0  0  0  0  0  0  0  0
    3.0000    1.5000    0.0000 F   0  0  0  0  0  0  0  0  0  0  0  0
    1.5000    0.0000    0.0000 C   0  0  0  0  0  0  0  0  0  0  0  0
    0.7500   -1.2990    0.0000 C   0  0  0  0  0  0  0  0  0  0  0  0
   -0.7500   -1.2990    0.0000 C   0  0  0  0  0  0  0  0  0  0  0  0
   -1.5000    0.0000    0.0000 C   0  0  0  0  0  0  0  0  0  0  0  0
   -3.0000    0.0000    0.0000 C   0  0  0  0  0  0  0  0  0  0  0  0
   -3.7500   -1.2990    0.0000 N   0  0  0  0  0  0  0  0  0  0  0  0
   -5.2500   -1.2990    0.0000 C   0  0  0  0  0  0  0  0  0  0  0  0
   -6.0000    0.0000    0.0000 O   0  0  0  0  0  0  0  0  0  0  0  0
   -6.0000   -2.5981    0.0000 N   0  0  0  0  0  0  0  0  0  0  0  0
   -7.5000   -2.5981    0.0000 C   0  0  0  0  0  0  0  0  0  0  0  0
   -8.2500   -1.2990    0.0000 C   0  0  0  0  0  0  0  0  0  0  0  0
   -9.7500   -1.2990    0.0000 C   0  0  0  0  0  0  0  0  0  0  0  0
  -10.5000   -2.5981    0.0000 C   0  0  0  0  0  0  0  0  0  0  0  0
   -9.7500   -3.8971    0.0000 C   0  0  0  0  0  0  0  0  0  0  0  0
   -8.2500   -3.8971    0.0000 N   0  0  0  0  0  0  0  0  0  0  0  0
  -12.0000   -2.5981    0.0000 C   0  0  0  0  0  0  0  0  0  0  0  0
  -13.5000   -2.5981    0.0000 N   0  0  0  0  0  0  0  0  0  0  0  0
   -3.7500    1.2990    0.0000 C   0  0  0  0  0  0  0  0  0  0  0  0
   -3.0000    2.5981    0.0000 C   0  0  0  0  0  0  0  0  0  0  0  0
   -1.5000    2.5981    0.0000 N   0  0  0  0  0  0  0  0  0  0  0  0
   -0.7500    1.2990    0.0000 C   0  0  0  0  0  0  0  0  0  0  0  0
    0.7500    1.2990    0.0000 C   0  0  0  0  0  0  0  0  0  0  0  0
  1  2  1  0
  2  3  1  0
  2  4  1  0
  2  5  1  0
  5  6  2  0
  6  7  1  0
  7  8  2  0
  8  9  1  0
  9 10  1  0
 10 11  1  0
 11 12  2  0
 11 13  1  0
 13 14  1  0
 14 15  2  0
 15 16  1  0
 16 17  2  0
 17 18  1  0
 18 19  2  0
 17 20  1  0
 20 21  3  0
  9 22  2  0
 22 23  1  0
 23 24  2  0
 24 25  1  0
 25 26  2  0
 26  5  1  0
 25  8  1  0
 19 14  1  0
M  END
>  <Molecule>  (390) 
CHEMBL1999718

>  <Standard Type>  (390) 
Ki

>  <Standard Relation>  (390) 
>

>  <Standard Value>  (390) 
1584.89

>  <Standard Units>  (390) 
nM

>  <pChEMBL Value>  (390) 
nan

>  <Comment>  (390) 
inactive

>  <Compound Key>  (390) 
SID103904897

>  <Assay>  (390) 
CHEMBL1963742

>  <Assay Description>  (390) 
PUBCHEM_BIOASSAY: Navigating the Kinome. (Class of assay: other) Panel member name: JAK3

>  <BAO Format>  (390) 
assay format

>  <Target>  (390) 
CHEMBL2148

>  <Target Pref. Name>  (390) 
Tyrosine-protein kinase JAK3

>  <Target Organism>  (390) 
Homo sapiens

>  <Target Type>  (390) 
SINGLE PROTEIN

>  <Document>  (390) 
CHEMBL1201862

>  <Source>  (390) 
PubChem BioAssays

>  <Max Phase>  (390) 
0

>  <#Ro5 Violations>  (390) 
0

>  <Molecular Weight>  (390) 
357.3

>  <Ligand Efficiency BEI>  (390) 
nan

>  <Ligand Efficiency LE>  (390) 
nan

>  <Ligand Efficiency LLE>  (390) 
nan

>  <Ligand Efficiency SEI>  (390) 
nan

>  <ALogP>  (390) 
4.16

>  <Assay Organism>  (390) 
nan

>  <Assay Tissue ChEMBL ID>  (390) 
nan

>  <Assay Tissue Name>  (390) 
nan

>  <Assay Cell Type>  (390) 
nan

>  <Assay Subcellular Fraction>  (390) 
nan

>  <Organism Tax ID>  (390) 
9606

>  <BAO Format ID>  (390) 
BAO_0000019

>  <Published Type>  (390) 
nan

>  <Published Relation>  (390) 
nan

>  <Published Value>  (390) 
nan

>  <Published Units>  (390) 
nan

>  <Canonical Smiles>  (390) 
FC(F)(F)c1ccc2c(NC(=O)Nc3ccc(cn3)C#N)ccnc2c1

>  <Data Validity Comment>  (390) 
nan

>  <Document Journal>  (390) 
nan

>  <Document Year>  (390) 
nan

>  <SRC ID>  (390) 
7

>  <UO Units>  (390) 
UO_0000065

>  <Potential Duplicate>  (390) 
False

>  <Class>  (390) 
0

$$$$

     RDKit          2D

 24 27  0  0  0  0  0  0  0  0999 V2000
   -5.0487    4.2236    0.0000 N   0  0  0  0  0  0  0  0  0  0  0  0
   -5.3605    2.7564    0.0000 C   0  0  0  0  0  0  0  0  0  0  0  0
   -4.2458    1.7527    0.0000 C   0  0  0  0  0  0  0  0  0  0  0  0
   -4.5577    0.2855    0.0000 C   0  0  0  0  0  0  0  0  0  0  0  0
   -5.9843   -0.1781    0.0000 C   0  0  0  0  0  0  0  0  0  0  0  0
   -7.0990    0.8256    0.0000 C   0  0  0  0  0  0  0  0  0  0  0  0
   -6.7871    2.2929    0.0000 C   0  0  0  0  0  0  0  0  0  0  0  0
   -6.2961   -1.6453    0.0000 N   0  0  0  0  0  0  0  0  0  0  0  0
   -5.1814   -2.6490    0.0000 C   0  0  0  0  0  0  0  0  0  0  0  0
   -5.4933   -4.1162    0.0000 N   0  0  0  0  0  0  0  0  0  0  0  0
   -4.3786   -5.1199    0.0000 C   0  0  0  0  0  0  0  0  0  0  0  0
   -4.6904   -6.5871    0.0000 Cl  0  0  0  0  0  0  0  0  0  0  0  0
   -2.9520   -4.6564    0.0000 C   0  0  0  0  0  0  0  0  0  0  0  0
   -2.6401   -3.1891    0.0000 C   0  0  0  0  0  0  0  0  0  0  0  0
   -3.7548   -2.1855    0.0000 N   0  0  0  0  0  0  0  0  0  0  0  0
   -1.2135   -2.7256    0.0000 C   0  0  0  0  0  0  0  0  0  0  0  0
    0.0000   -3.6073    0.0000 C   0  0  0  0  0  0  0  0  0  0  0  0
    1.2135   -2.7256    0.0000 N   0  0  0  0  0  0  0  0  0  0  0  0
    0.7500   -1.2990    0.0000 C   0  0  0  0  0  0  0  0  0  0  0  0
    1.5000    0.0000    0.0000 N   0  0  0  0  0  0  0  0  0  0  0  0
    0.7500    1.2990    0.0000 C   0  0  0  0  0  0  0  0  0  0  0  0
   -0.7500    1.2990    0.0000 C   0  0  0  0  0  0  0  0  0  0  0  0
   -1.5000    0.0000    0.0000 C   0  0  0  0  0  0  0  0  0  0  0  0
   -0.7500   -1.2990    0.0000 C   0  0  0  0  0  0  0  0  0  0  0  0
  1  2  1  0
  2  3  1  0
  3  4  1  0
  4  5  1  0
  5  6  1  0
  6  7  1  0
  5  8  1  0
  8  9  1  0
  9 10  2  0
 10 11  1  0
 11 12  1  0
 11 13  2  0
 13 14  1  0
 14 15  2  0
 14 16  1  0
 16 17  2  0
 17 18  1  0
 18 19  1  0
 19 20  2  0
 20 21  1  0
 21 22  2  0
 22 23  1  0
 23 24  2  0
  7  2  1  0
 15  9  1  0
 24 16  1  0
 24 19  1  0
M  END
>  <Molecule>  (391) 
CHEMBL1973720

>  <Standard Type>  (391) 
Ki

>  <Standard Relation>  (391) 
=

>  <Standard Value>  (391) 
158.49

>  <Standard Units>  (391) 
nM

>  <pChEMBL Value>  (391) 
6.8

>  <Comment>  (391) 
active

>  <Compound Key>  (391) 
SID103904190

>  <Assay>  (391) 
CHEMBL1963742

>  <Assay Description>  (391) 
PUBCHEM_BIOASSAY: Navigating the Kinome. (Class of assay: other) Panel member name: JAK3

>  <BAO Format>  (391) 
assay format

>  <Target>  (391) 
CHEMBL2148

>  <Target Pref. Name>  (391) 
Tyrosine-protein kinase JAK3

>  <Target Organism>  (391) 
Homo sapiens

>  <Target Type>  (391) 
SINGLE PROTEIN

>  <Document>  (391) 
CHEMBL1201862

>  <Source>  (391) 
PubChem BioAssays

>  <Max Phase>  (391) 
0

>  <#Ro5 Violations>  (391) 
0

>  <Molecular Weight>  (391) 
342.83

>  <Ligand Efficiency BEI>  (391) 
nan

>  <Ligand Efficiency LE>  (391) 
nan

>  <Ligand Efficiency LLE>  (391) 
nan

>  <Ligand Efficiency SEI>  (391) 
nan

>  <ALogP>  (391) 
3.36

>  <Assay Organism>  (391) 
nan

>  <Assay Tissue ChEMBL ID>  (391) 
nan

>  <Assay Tissue Name>  (391) 
nan

>  <Assay Cell Type>  (391) 
nan

>  <Assay Subcellular Fraction>  (391) 
nan

>  <Organism Tax ID>  (391) 
9606

>  <BAO Format ID>  (391) 
BAO_0000019

>  <Published Type>  (391) 
nan

>  <Published Relation>  (391) 
nan

>  <Published Value>  (391) 
nan

>  <Published Units>  (391) 
nan

>  <Canonical Smiles>  (391) 
NC1CCC(CC1)Nc2nc(Cl)cc(n2)c3c[nH]c4ncccc34

>  <Data Validity Comment>  (391) 
nan

>  <Document Journal>  (391) 
nan

>  <Document Year>  (391) 
nan

>  <SRC ID>  (391) 
7

>  <UO Units>  (391) 
UO_0000065

>  <Potential Duplicate>  (391) 
False

>  <Class>  (391) 
1

$$$$

     RDKit          2D

 50 57  0  0  0  0  0  0  0  0999 V2000
   -3.3199   -5.9207    0.0000 F   0  0  0  0  0  0  0  0  0  0  0  0
   -2.1063   -6.8024    0.0000 C   0  0  0  0  0  0  0  0  0  0  0  0
   -0.7360   -6.1923    0.0000 C   0  0  0  0  0  0  0  0  0  0  0  0
    0.4775   -7.0740    0.0000 C   0  0  0  0  0  0  0  0  0  0  0  0
    1.8478   -6.4639    0.0000 C   0  0  0  0  0  0  0  0  0  0  0  0
    2.0046   -4.9721    0.0000 N   0  0  0  0  0  0  0  0  0  0  0  0
    0.8899   -3.9684    0.0000 C   0  0  0  0  0  0  0  0  0  0  0  0
    1.5000   -2.5981    0.0000 C   0  0  0  0  0  0  0  0  0  0  0  0
    0.7500   -1.2990    0.0000 C   0  0  0  0  0  0  0  0  0  0  0  0
    1.5000    0.0000    0.0000 C   0  0  0  0  0  0  0  0  0  0  0  0
    0.7500    1.2990    0.0000 C   0  0  0  0  0  0  0  0  0  0  0  0
   -0.7500    1.2990    0.0000 C   0  0  0  0  0  0  0  0  0  0  0  0
   -1.2980    2.6953    0.0000 C   0  0  0  0  0  0  0  0  0  0  0  0
   -0.2778    3.7949    0.0000 O   0  0  0  0  0  0  0  0  0  0  0  0
   -2.7314    3.1375    0.0000 N   0  0  0  0  0  0  0  0  0  0  0  0
   -3.9707    2.2925    0.0000 C   0  0  0  0  0  0  0  0  0  0  0  0
   -5.2101    3.1375    0.0000 C   0  0  0  0  0  0  0  0  0  0  0  0
   -6.5615    2.4867    0.0000 C   0  0  0  0  0  0  0  0  0  0  0  0
   -7.8009    3.3316    0.0000 C   0  0  0  0  0  0  0  0  0  0  0  0
   -7.6888    4.8274    0.0000 C   0  0  0  0  0  0  0  0  0  0  0  0
   -8.9282    5.6724    0.0000 O   0  0  0  0  0  0  0  0  0  0  0  0
   -8.8161    7.1682    0.0000 C   0  0  0  0  0  0  0  0  0  0  0  0
   -7.4646    7.8191    0.0000 C   0  0  0  0  0  0  0  0  0  0  0  0
   -7.3525    9.3149    0.0000 C   0  0  0  0  0  0  0  0  0  0  0  0
   -8.5919   10.1598    0.0000 C   0  0  0  0  0  0  0  0  0  0  0  0
   -9.9433    9.5090    0.0000 C   0  0  0  0  0  0  0  0  0  0  0  0
  -10.0554    8.0132    0.0000 C   0  0  0  0  0  0  0  0  0  0  0  0
   -8.4798   11.6556    0.0000 N   0  0  0  0  0  0  0  0  0  0  0  0
   -7.1283   12.3065    0.0000 C   0  0  0  0  0  0  0  0  0  0  0  0
   -7.0162   13.8023    0.0000 C   0  0  0  0  0  0  0  0  0  0  0  0
   -8.2556   14.6473    0.0000 O   0  0  0  0  0  0  0  0  0  0  0  0
   -9.6070   13.9964    0.0000 C   0  0  0  0  0  0  0  0  0  0  0  0
   -9.7191   12.5006    0.0000 C   0  0  0  0  0  0  0  0  0  0  0  0
   -6.6736    0.9909    0.0000 C   0  0  0  0  0  0  0  0  0  0  0  0
   -5.4343    0.1459    0.0000 C   0  0  0  0  0  0  0  0  0  0  0  0
   -4.0828    0.7967    0.0000 C   0  0  0  0  0  0  0  0  0  0  0  0
   -2.9832   -0.2236    0.0000 N   0  0  0  0  0  0  0  0  0  0  0  0
   -1.5000    0.0000    0.0000 C   0  0  0  0  0  0  0  0  0  0  0  0
   -0.7500   -1.2990    0.0000 C   0  0  0  0  0  0  0  0  0  0  0  0
    2.9918   -2.7549    0.0000 C   0  0  0  0  0  0  0  0  0  0  0  0
    4.1065   -1.7512    0.0000 C   0  0  0  0  0  0  0  0  0  0  0  0
    5.5331   -2.2147    0.0000 C   0  0  0  0  0  0  0  0  0  0  0  0
    5.8450   -3.6819    0.0000 N   0  0  0  0  0  0  0  0  0  0  0  0
    4.7302   -4.6856    0.0000 C   0  0  0  0  0  0  0  0  0  0  0  0
    3.3037   -4.2221    0.0000 C   0  0  0  0  0  0  0  0  0  0  0  0
    0.3207   -8.5658    0.0000 C   0  0  0  0  0  0  0  0  0  0  0  0
   -1.0496   -9.1759    0.0000 C   0  0  0  0  0  0  0  0  0  0  0  0
   -1.2064  -10.6676    0.0000 F   0  0  0  0  0  0  0  0  0  0  0  0
   -2.2631   -8.2942    0.0000 C   0  0  0  0  0  0  0  0  0  0  0  0
   -3.6335   -8.9043    0.0000 F   0  0  0  0  0  0  0  0  0  0  0  0
  1  2  1  0
  2  3  2  0
  3  4  1  0
  4  5  1  0
  5  6  1  0
  6  7  1  0
  7  8  2  0
  8  9  1  0
  9 10  2  0
 10 11  1  0
 11 12  2  0
 12 13  1  0
 13 14  2  0
 13 15  1  0
 15 16  1  0
 16 17  2  0
 17 18  1  0
 18 19  1  0
 19 20  1  0
 20 21  1  0
 21 22  1  0
 22 23  2  0
 23 24  1  0
 24 25  2  0
 25 26  1  0
 26 27  2  0
 25 28  1  0
 28 29  1  0
 29 30  1  0
 30 31  1  0
 31 32  1  0
 32 33  1  0
 18 34  2  0
 34 35  1  0
 35 36  2  0
 36 37  1  0
 37 38  1  0
 38 39  2  0
  8 40  1  0
 40 41  2  0
 41 42  1  0
 42 43  2  0
 43 44  1  0
 44 45  2  0
  4 46  2  0
 46 47  1  0
 47 48  1  0
 47 49  2  0
 49 50  1  0
 49  2  1  0
 45  6  1  0
 39  9  1  0
 38 12  1  0
 36 16  1  0
 27 22  1  0
 33 28  1  0
 45 40  1  0
M  END
>  <Molecule>  (392) 
CHEMBL2001923

>  <Standard Type>  (392) 
Ki

>  <Standard Relation>  (392) 
>

>  <Standard Value>  (392) 
3162.28

>  <Standard Units>  (392) 
nM

>  <pChEMBL Value>  (392) 
nan

>  <Comment>  (392) 
inactive

>  <Compound Key>  (392) 
SID103905427

>  <Assay>  (392) 
CHEMBL1963742

>  <Assay Description>  (392) 
PUBCHEM_BIOASSAY: Navigating the Kinome. (Class of assay: other) Panel member name: JAK3

>  <BAO Format>  (392) 
assay format

>  <Target>  (392) 
CHEMBL2148

>  <Target Pref. Name>  (392) 
Tyrosine-protein kinase JAK3

>  <Target Organism>  (392) 
Homo sapiens

>  <Target Type>  (392) 
SINGLE PROTEIN

>  <Document>  (392) 
CHEMBL1201862

>  <Source>  (392) 
PubChem BioAssays

>  <Max Phase>  (392) 
0

>  <#Ro5 Violations>  (392) 
2

>  <Molecular Weight>  (392) 
675.71

>  <Ligand Efficiency BEI>  (392) 
nan

>  <Ligand Efficiency LE>  (392) 
nan

>  <Ligand Efficiency LLE>  (392) 
nan

>  <Ligand Efficiency SEI>  (392) 
nan

>  <ALogP>  (392) 
7.94

>  <Assay Organism>  (392) 
nan

>  <Assay Tissue ChEMBL ID>  (392) 
nan

>  <Assay Tissue Name>  (392) 
nan

>  <Assay Cell Type>  (392) 
nan

>  <Assay Subcellular Fraction>  (392) 
nan

>  <Organism Tax ID>  (392) 
9606

>  <BAO Format ID>  (392) 
BAO_0000019

>  <Published Type>  (392) 
nan

>  <Published Relation>  (392) 
nan

>  <Published Value>  (392) 
nan

>  <Published Units>  (392) 
nan

>  <Canonical Smiles>  (392) 
Fc1cc(Cn2cc(c3ccc4C(=O)Nc5cc(CCOc6ccc(cc6)N7CCOCC7)ccc5Nc4c3)c8ccncc28)cc(F)c1F

>  <Data Validity Comment>  (392) 
nan

>  <Document Journal>  (392) 
nan

>  <Document Year>  (392) 
nan

>  <SRC ID>  (392) 
7

>  <UO Units>  (392) 
UO_0000065

>  <Potential Duplicate>  (392) 
False

>  <Class>  (392) 
0

$$$$

     RDKit          2D

 23 25  0  0  0  0  0  0  0  0999 V2000
    2.7760    1.5000    0.0000 C   0  0  0  0  0  0  0  0  0  0  0  0
    2.7760    0.0000    0.0000 C   0  0  0  0  0  0  0  0  0  0  0  0
    2.7760   -1.5000    0.0000 C   0  0  0  0  0  0  0  0  0  0  0  0
    4.2760    0.0000    0.0000 C   0  0  0  0  0  0  0  0  0  0  0  0
    1.2760    0.0000    0.0000 C   0  0  0  0  0  0  0  0  0  0  0  0
    0.3943    1.2135    0.0000 N   0  0  0  0  0  0  0  0  0  0  0  0
   -1.0323    0.7500    0.0000 N   0  0  0  0  0  0  0  0  0  0  0  0
   -1.0323   -0.7500    0.0000 C   0  0  0  0  0  0  0  0  0  0  0  0
   -2.1470   -1.7537    0.0000 O   0  0  0  0  0  0  0  0  0  0  0  0
   -1.8351   -3.2209    0.0000 C   0  0  0  0  0  0  0  0  0  0  0  0
   -0.4086   -3.6844    0.0000 C   0  0  0  0  0  0  0  0  0  0  0  0
   -0.0967   -5.1517    0.0000 C   0  0  0  0  0  0  0  0  0  0  0  0
    0.2152   -6.6189    0.0000 N   0  0  0  0  0  0  0  0  0  0  0  0
    0.7062   -2.6807    0.0000 C   0  0  0  0  0  0  0  0  0  0  0  0
    2.1328   -3.1443    0.0000 C   0  0  0  0  0  0  0  0  0  0  0  0
    3.2475   -2.1406    0.0000 C   0  0  0  0  0  0  0  0  0  0  0  0
    4.6741   -2.6041    0.0000 C   0  0  0  0  0  0  0  0  0  0  0  0
    4.9859   -4.0713    0.0000 C   0  0  0  0  0  0  0  0  0  0  0  0
    3.8712   -5.0750    0.0000 C   0  0  0  0  0  0  0  0  0  0  0  0
    2.4446   -4.6115    0.0000 C   0  0  0  0  0  0  0  0  0  0  0  0
    1.3299   -5.6152    0.0000 F   0  0  0  0  0  0  0  0  0  0  0  0
    0.3943   -1.2135    0.0000 C   0  0  0  0  0  0  0  0  0  0  0  0
   -2.9499   -4.2246    0.0000 N   0  0  0  0  0  0  0  0  0  0  0  0
  1  2  1  0
  2  3  1  0
  2  4  1  0
  2  5  1  0
  5  6  2  0
  6  7  1  0
  7  8  1  0
  8  9  1  0
  9 10  1  0
 10 11  2  0
 11 12  1  0
 12 13  3  0
 11 14  1  0
 14 15  1  0
 15 16  2  0
 16 17  1  0
 17 18  2  0
 18 19  1  0
 19 20  2  0
 20 21  1  0
 14 22  1  0
 10 23  1  0
 22  5  1  0
 22  8  2  0
 20 15  1  0
M  END
>  <Molecule>  (393) 
CHEMBL2004447

>  <Standard Type>  (393) 
Ki

>  <Standard Relation>  (393) 
>

>  <Standard Value>  (393) 
1584.89

>  <Standard Units>  (393) 
nM

>  <pChEMBL Value>  (393) 
nan

>  <Comment>  (393) 
inactive

>  <Compound Key>  (393) 
SID103905103

>  <Assay>  (393) 
CHEMBL1963742

>  <Assay Description>  (393) 
PUBCHEM_BIOASSAY: Navigating the Kinome. (Class of assay: other) Panel member name: JAK3

>  <BAO Format>  (393) 
assay format

>  <Target>  (393) 
CHEMBL2148

>  <Target Pref. Name>  (393) 
Tyrosine-protein kinase JAK3

>  <Target Organism>  (393) 
Homo sapiens

>  <Target Type>  (393) 
SINGLE PROTEIN

>  <Document>  (393) 
CHEMBL1201862

>  <Source>  (393) 
PubChem BioAssays

>  <Max Phase>  (393) 
0

>  <#Ro5 Violations>  (393) 
0

>  <Molecular Weight>  (393) 
312.35

>  <Ligand Efficiency BEI>  (393) 
nan

>  <Ligand Efficiency LE>  (393) 
nan

>  <Ligand Efficiency LLE>  (393) 
nan

>  <Ligand Efficiency SEI>  (393) 
nan

>  <ALogP>  (393) 
3.06

>  <Assay Organism>  (393) 
nan

>  <Assay Tissue ChEMBL ID>  (393) 
nan

>  <Assay Tissue Name>  (393) 
nan

>  <Assay Cell Type>  (393) 
nan

>  <Assay Subcellular Fraction>  (393) 
nan

>  <Organism Tax ID>  (393) 
9606

>  <BAO Format ID>  (393) 
BAO_0000019

>  <Published Type>  (393) 
nan

>  <Published Relation>  (393) 
nan

>  <Published Value>  (393) 
nan

>  <Published Units>  (393) 
nan

>  <Canonical Smiles>  (393) 
CC(C)(C)c1n[nH]c2OC(=C(C#N)C(c3ccccc3F)c12)N

>  <Data Validity Comment>  (393) 
nan

>  <Document Journal>  (393) 
nan

>  <Document Year>  (393) 
nan

>  <SRC ID>  (393) 
7

>  <UO Units>  (393) 
UO_0000065

>  <Potential Duplicate>  (393) 
False

>  <Class>  (393) 
0

$$$$

     RDKit          2D

 28 31  0  0  0  0  0  0  0  0999 V2000
   -1.8836    6.6179    0.0000 C   0  0  0  0  0  0  0  0  0  0  0  0
   -3.3102    6.1544    0.0000 N   0  0  0  0  0  0  0  0  0  0  0  0
   -3.6221    4.6871    0.0000 C   0  0  0  0  0  0  0  0  0  0  0  0
   -2.5074    3.6834    0.0000 O   0  0  0  0  0  0  0  0  0  0  0  0
   -5.0487    4.2236    0.0000 N   0  0  0  0  0  0  0  0  0  0  0  0
   -5.3605    2.7564    0.0000 C   0  0  0  0  0  0  0  0  0  0  0  0
   -4.2458    1.7527    0.0000 C   0  0  0  0  0  0  0  0  0  0  0  0
   -4.5577    0.2855    0.0000 C   0  0  0  0  0  0  0  0  0  0  0  0
   -5.9843   -0.1781    0.0000 C   0  0  0  0  0  0  0  0  0  0  0  0
   -7.0990    0.8256    0.0000 C   0  0  0  0  0  0  0  0  0  0  0  0
   -6.7871    2.2929    0.0000 C   0  0  0  0  0  0  0  0  0  0  0  0
   -6.2961   -1.6453    0.0000 N   0  0  0  0  0  0  0  0  0  0  0  0
   -5.1814   -2.6490    0.0000 C   0  0  0  0  0  0  0  0  0  0  0  0
   -5.4933   -4.1162    0.0000 N   0  0  0  0  0  0  0  0  0  0  0  0
   -4.3786   -5.1199    0.0000 C   0  0  0  0  0  0  0  0  0  0  0  0
   -4.6904   -6.5871    0.0000 Cl  0  0  0  0  0  0  0  0  0  0  0  0
   -2.9520   -4.6564    0.0000 C   0  0  0  0  0  0  0  0  0  0  0  0
   -2.6401   -3.1891    0.0000 C   0  0  0  0  0  0  0  0  0  0  0  0
   -3.7548   -2.1855    0.0000 N   0  0  0  0  0  0  0  0  0  0  0  0
   -1.2135   -2.7256    0.0000 C   0  0  0  0  0  0  0  0  0  0  0  0
    0.0000   -3.6073    0.0000 C   0  0  0  0  0  0  0  0  0  0  0  0
    1.2135   -2.7256    0.0000 N   0  0  0  0  0  0  0  0  0  0  0  0
    0.7500   -1.2990    0.0000 C   0  0  0  0  0  0  0  0  0  0  0  0
    1.5000    0.0000    0.0000 N   0  0  0  0  0  0  0  0  0  0  0  0
    0.7500    1.2990    0.0000 C   0  0  0  0  0  0  0  0  0  0  0  0
   -0.7500    1.2990    0.0000 C   0  0  0  0  0  0  0  0  0  0  0  0
   -1.5000    0.0000    0.0000 C   0  0  0  0  0  0  0  0  0  0  0  0
   -0.7500   -1.2990    0.0000 C   0  0  0  0  0  0  0  0  0  0  0  0
  1  2  1  0
  2  3  1  0
  3  4  2  0
  3  5  1  0
  5  6  1  0
  6  7  1  0
  7  8  1  0
  8  9  1  0
  9 10  1  0
 10 11  1  0
  9 12  1  0
 12 13  1  0
 13 14  2  0
 14 15  1  0
 15 16  1  0
 15 17  2  0
 17 18  1  0
 18 19  2  0
 18 20  1  0
 20 21  2  0
 21 22  1  0
 22 23  1  0
 23 24  2  0
 24 25  1  0
 25 26  2  0
 26 27  1  0
 27 28  2  0
 11  6  1  0
 19 13  1  0
 28 20  1  0
 28 23  1  0
M  END
>  <Molecule>  (394) 
CHEMBL2005509

>  <Standard Type>  (394) 
Ki

>  <Standard Relation>  (394) 
=

>  <Standard Value>  (394) 
63.1

>  <Standard Units>  (394) 
nM

>  <pChEMBL Value>  (394) 
7.2

>  <Comment>  (394) 
active

>  <Compound Key>  (394) 
SID103904227

>  <Assay>  (394) 
CHEMBL1963742

>  <Assay Description>  (394) 
PUBCHEM_BIOASSAY: Navigating the Kinome. (Class of assay: other) Panel member name: JAK3

>  <BAO Format>  (394) 
assay format

>  <Target>  (394) 
CHEMBL2148

>  <Target Pref. Name>  (394) 
Tyrosine-protein kinase JAK3

>  <Target Organism>  (394) 
Homo sapiens

>  <Target Type>  (394) 
SINGLE PROTEIN

>  <Document>  (394) 
CHEMBL1201862

>  <Source>  (394) 
PubChem BioAssays

>  <Max Phase>  (394) 
0

>  <#Ro5 Violations>  (394) 
0

>  <Molecular Weight>  (394) 
399.89

>  <Ligand Efficiency BEI>  (394) 
nan

>  <Ligand Efficiency LE>  (394) 
nan

>  <Ligand Efficiency LLE>  (394) 
nan

>  <Ligand Efficiency SEI>  (394) 
nan

>  <ALogP>  (394) 
3.33

>  <Assay Organism>  (394) 
nan

>  <Assay Tissue ChEMBL ID>  (394) 
nan

>  <Assay Tissue Name>  (394) 
nan

>  <Assay Cell Type>  (394) 
nan

>  <Assay Subcellular Fraction>  (394) 
nan

>  <Organism Tax ID>  (394) 
9606

>  <BAO Format ID>  (394) 
BAO_0000019

>  <Published Type>  (394) 
nan

>  <Published Relation>  (394) 
nan

>  <Published Value>  (394) 
nan

>  <Published Units>  (394) 
nan

>  <Canonical Smiles>  (394) 
CNC(=O)NC1CCC(CC1)Nc2nc(Cl)cc(n2)c3c[nH]c4ncccc34

>  <Data Validity Comment>  (394) 
nan

>  <Document Journal>  (394) 
nan

>  <Document Year>  (394) 
nan

>  <SRC ID>  (394) 
7

>  <UO Units>  (394) 
UO_0000065

>  <Potential Duplicate>  (394) 
False

>  <Class>  (394) 
1

$$$$

     RDKit          2D

 18 19  0  0  0  0  0  0  0  0999 V2000
    5.2500   -1.2990    0.0000 C   0  0  0  0  0  0  0  0  0  0  0  0
    3.7500   -1.2990    0.0000 C   0  0  0  0  0  0  0  0  0  0  0  0
    3.0000   -2.5981    0.0000 O   0  0  0  0  0  0  0  0  0  0  0  0
    3.0000    0.0000    0.0000 N   0  0  0  0  0  0  0  0  0  0  0  0
    1.5000    0.0000    0.0000 C   0  0  0  0  0  0  0  0  0  0  0  0
    0.7500   -1.2990    0.0000 C   0  0  0  0  0  0  0  0  0  0  0  0
   -0.7500   -1.2990    0.0000 C   0  0  0  0  0  0  0  0  0  0  0  0
   -1.5000   -2.5981    0.0000 N   0  0  0  0  0  0  0  0  0  0  0  0
   -1.5000    0.0000    0.0000 C   0  0  0  0  0  0  0  0  0  0  0  0
   -3.0000    0.0000    0.0000 C   0  0  0  0  0  0  0  0  0  0  0  0
   -4.5000    0.0000    0.0000 N   0  0  0  0  0  0  0  0  0  0  0  0
   -0.7500    1.2990    0.0000 C   0  0  0  0  0  0  0  0  0  0  0  0
    0.7500    1.2990    0.0000 N   0  0  0  0  0  0  0  0  0  0  0  0
   -1.5000    2.5981    0.0000 C   0  0  0  0  0  0  0  0  0  0  0  0
   -2.9918    2.7549    0.0000 C   0  0  0  0  0  0  0  0  0  0  0  0
   -3.3037    4.2221    0.0000 C   0  0  0  0  0  0  0  0  0  0  0  0
   -2.0046    4.9721    0.0000 S   0  0  0  0  0  0  0  0  0  0  0  0
   -0.8899    3.9684    0.0000 C   0  0  0  0  0  0  0  0  0  0  0  0
  1  2  1  0
  2  3  2  0
  2  4  1  0
  4  5  1  0
  5  6  2  0
  6  7  1  0
  7  8  1  0
  7  9  2  0
  9 10  1  0
 10 11  3  0
  9 12  1  0
 12 13  2  0
 12 14  1  0
 14 15  1  0
 15 16  2  0
 16 17  1  0
 17 18  1  0
 13  5  1  0
 18 14  2  0
M  END
>  <Molecule>  (395) 
CHEMBL2006567

>  <Standard Type>  (395) 
Ki

>  <Standard Relation>  (395) 
>

>  <Standard Value>  (395) 
1584.89

>  <Standard Units>  (395) 
nM

>  <pChEMBL Value>  (395) 
nan

>  <Comment>  (395) 
inactive

>  <Compound Key>  (395) 
SID103905192

>  <Assay>  (395) 
CHEMBL1963742

>  <Assay Description>  (395) 
PUBCHEM_BIOASSAY: Navigating the Kinome. (Class of assay: other) Panel member name: JAK3

>  <BAO Format>  (395) 
assay format

>  <Target>  (395) 
CHEMBL2148

>  <Target Pref. Name>  (395) 
Tyrosine-protein kinase JAK3

>  <Target Organism>  (395) 
Homo sapiens

>  <Target Type>  (395) 
SINGLE PROTEIN

>  <Document>  (395) 
CHEMBL1201862

>  <Source>  (395) 
PubChem BioAssays

>  <Max Phase>  (395) 
0

>  <#Ro5 Violations>  (395) 
0

>  <Molecular Weight>  (395) 
258.31

>  <Ligand Efficiency BEI>  (395) 
nan

>  <Ligand Efficiency LE>  (395) 
nan

>  <Ligand Efficiency LLE>  (395) 
nan

>  <Ligand Efficiency SEI>  (395) 
nan

>  <ALogP>  (395) 
2.22

>  <Assay Organism>  (395) 
nan

>  <Assay Tissue ChEMBL ID>  (395) 
nan

>  <Assay Tissue Name>  (395) 
nan

>  <Assay Cell Type>  (395) 
nan

>  <Assay Subcellular Fraction>  (395) 
nan

>  <Organism Tax ID>  (395) 
9606

>  <BAO Format ID>  (395) 
BAO_0000019

>  <Published Type>  (395) 
nan

>  <Published Relation>  (395) 
nan

>  <Published Value>  (395) 
nan

>  <Published Units>  (395) 
nan

>  <Canonical Smiles>  (395) 
CC(=O)Nc1cc(N)c(C#N)c(n1)c2ccsc2

>  <Data Validity Comment>  (395) 
nan

>  <Document Journal>  (395) 
nan

>  <Document Year>  (395) 
nan

>  <SRC ID>  (395) 
7

>  <UO Units>  (395) 
UO_0000065

>  <Potential Duplicate>  (395) 
False

>  <Class>  (395) 
0

$$$$

     RDKit          2D

 32 36  0  0  0  0  0  0  0  0999 V2000
   -1.8373   -5.6601    0.0000 O   0  0  0  0  0  0  0  0  0  0  0  0
   -2.9520   -4.6564    0.0000 C   0  0  0  0  0  0  0  0  0  0  0  0
   -2.6401   -3.1891    0.0000 N   0  0  0  0  0  0  0  0  0  0  0  0
   -1.2135   -2.7256    0.0000 C   0  0  0  0  0  0  0  0  0  0  0  0
    0.0000   -3.6073    0.0000 N   0  0  0  0  0  0  0  0  0  0  0  0
    1.2135   -2.7256    0.0000 N   0  0  0  0  0  0  0  0  0  0  0  0
    0.7500   -1.2990    0.0000 C   0  0  0  0  0  0  0  0  0  0  0  0
    1.5000    0.0000    0.0000 C   0  0  0  0  0  0  0  0  0  0  0  0
    0.7500    1.2990    0.0000 C   0  0  0  0  0  0  0  0  0  0  0  0
   -0.7500    1.2990    0.0000 C   0  0  0  0  0  0  0  0  0  0  0  0
   -1.5000    0.0000    0.0000 C   0  0  0  0  0  0  0  0  0  0  0  0
   -0.7500   -1.2990    0.0000 C   0  0  0  0  0  0  0  0  0  0  0  0
   -1.5000    2.5981    0.0000 C   0  0  0  0  0  0  0  0  0  0  0  0
   -2.9918    2.7549    0.0000 C   0  0  0  0  0  0  0  0  0  0  0  0
   -3.3037    4.2221    0.0000 N   0  0  0  0  0  0  0  0  0  0  0  0
   -4.6740    4.8322    0.0000 C   0  0  0  0  0  0  0  0  0  0  0  0
   -4.8308    6.3240    0.0000 C   0  0  0  0  0  0  0  0  0  0  0  0
   -3.6172    7.2057    0.0000 C   0  0  0  0  0  0  0  0  0  0  0  0
   -3.7740    8.6974    0.0000 C   0  0  0  0  0  0  0  0  0  0  0  0
   -5.1443    9.3075    0.0000 C   0  0  0  0  0  0  0  0  0  0  0  0
   -6.3579    8.4259    0.0000 C   0  0  0  0  0  0  0  0  0  0  0  0
   -6.2011    6.9341    0.0000 C   0  0  0  0  0  0  0  0  0  0  0  0
   -2.0046    4.9721    0.0000 N   0  0  0  0  0  0  0  0  0  0  0  0
   -0.8899    3.9684    0.0000 N   0  0  0  0  0  0  0  0  0  0  0  0
   -4.3786   -5.1199    0.0000 C   0  0  0  0  0  0  0  0  0  0  0  0
   -5.4933   -4.1162    0.0000 C   0  0  0  0  0  0  0  0  0  0  0  0
   -6.9199   -4.5797    0.0000 C   0  0  0  0  0  0  0  0  0  0  0  0
   -7.2317   -6.0469    0.0000 C   0  0  0  0  0  0  0  0  0  0  0  0
   -6.1170   -7.0506    0.0000 C   0  0  0  0  0  0  0  0  0  0  0  0
   -4.6904   -6.5871    0.0000 C   0  0  0  0  0  0  0  0  0  0  0  0
   -6.4289   -8.5179    0.0000 C   0  0  0  0  0  0  0  0  0  0  0  0
   -6.7407   -9.9851    0.0000 N   0  0  0  0  0  0  0  0  0  0  0  0
  1  2  2  0
  2  3  1  0
  3  4  1  0
  4  5  2  0
  5  6  1  0
  6  7  1  0
  7  8  2  0
  8  9  1  0
  9 10  2  0
 10 11  1  0
 11 12  2  0
 10 13  1  0
 13 14  2  0
 14 15  1  0
 15 16  1  0
 16 17  1  0
 17 18  2  0
 18 19  1  0
 19 20  2  0
 20 21  1  0
 21 22  2  0
 15 23  1  0
 23 24  2  0
  2 25  1  0
 25 26  2  0
 26 27  1  0
 27 28  2  0
 28 29  1  0
 29 30  2  0
 29 31  1  0
 31 32  3  0
 12  4  1  0
 12  7  1  0
 24 13  1  0
 22 17  1  0
 30 25  1  0
M  END
>  <Molecule>  (396) 
CHEMBL1977128

>  <Standard Type>  (396) 
Ki

>  <Standard Relation>  (396) 
>

>  <Standard Value>  (396) 
5011.87

>  <Standard Units>  (396) 
nM

>  <pChEMBL Value>  (396) 
nan

>  <Comment>  (396) 
inactive

>  <Compound Key>  (396) 
SID103904534

>  <Assay>  (396) 
CHEMBL1963742

>  <Assay Description>  (396) 
PUBCHEM_BIOASSAY: Navigating the Kinome. (Class of assay: other) Panel member name: JAK3

>  <BAO Format>  (396) 
assay format

>  <Target>  (396) 
CHEMBL2148

>  <Target Pref. Name>  (396) 
Tyrosine-protein kinase JAK3

>  <Target Organism>  (396) 
Homo sapiens

>  <Target Type>  (396) 
SINGLE PROTEIN

>  <Document>  (396) 
CHEMBL1201862

>  <Source>  (396) 
PubChem BioAssays

>  <Max Phase>  (396) 
0

>  <#Ro5 Violations>  (396) 
0

>  <Molecular Weight>  (396) 
419.45

>  <Ligand Efficiency BEI>  (396) 
nan

>  <Ligand Efficiency LE>  (396) 
nan

>  <Ligand Efficiency LLE>  (396) 
nan

>  <Ligand Efficiency SEI>  (396) 
nan

>  <ALogP>  (396) 
3.99

>  <Assay Organism>  (396) 
nan

>  <Assay Tissue ChEMBL ID>  (396) 
nan

>  <Assay Tissue Name>  (396) 
nan

>  <Assay Cell Type>  (396) 
nan

>  <Assay Subcellular Fraction>  (396) 
nan

>  <Organism Tax ID>  (396) 
9606

>  <BAO Format ID>  (396) 
BAO_0000019

>  <Published Type>  (396) 
nan

>  <Published Relation>  (396) 
nan

>  <Published Value>  (396) 
nan

>  <Published Units>  (396) 
nan

>  <Canonical Smiles>  (396) 
O=C(Nc1n[nH]c2ccc(cc12)c3cn(Cc4ccccc4)nn3)c5cccc(c5)C#N

>  <Data Validity Comment>  (396) 
nan

>  <Document Journal>  (396) 
nan

>  <Document Year>  (396) 
nan

>  <SRC ID>  (396) 
7

>  <UO Units>  (396) 
UO_0000065

>  <Potential Duplicate>  (396) 
False

>  <Class>  (396) 
0

$$$$

     RDKit          2D

 16 18  0  0  0  0  0  0  0  0999 V2000
   -6.2961   -1.6453    0.0000 Cl  0  0  0  0  0  0  0  0  0  0  0  0
   -5.1814   -2.6490    0.0000 C   0  0  0  0  0  0  0  0  0  0  0  0
   -3.7548   -2.1855    0.0000 C   0  0  0  0  0  0  0  0  0  0  0  0
   -2.6401   -3.1891    0.0000 C   0  0  0  0  0  0  0  0  0  0  0  0
   -2.9520   -4.6564    0.0000 N   0  0  0  0  0  0  0  0  0  0  0  0
   -4.3786   -5.1199    0.0000 C   0  0  0  0  0  0  0  0  0  0  0  0
   -5.4933   -4.1162    0.0000 N   0  0  0  0  0  0  0  0  0  0  0  0
   -1.2135   -2.7256    0.0000 C   0  0  0  0  0  0  0  0  0  0  0  0
    0.0000   -3.6073    0.0000 C   0  0  0  0  0  0  0  0  0  0  0  0
    1.2135   -2.7256    0.0000 N   0  0  0  0  0  0  0  0  0  0  0  0
    0.7500   -1.2990    0.0000 C   0  0  0  0  0  0  0  0  0  0  0  0
    1.5000    0.0000    0.0000 N   0  0  0  0  0  0  0  0  0  0  0  0
    0.7500    1.2990    0.0000 C   0  0  0  0  0  0  0  0  0  0  0  0
   -0.7500    1.2990    0.0000 C   0  0  0  0  0  0  0  0  0  0  0  0
   -1.5000    0.0000    0.0000 C   0  0  0  0  0  0  0  0  0  0  0  0
   -0.7500   -1.2990    0.0000 C   0  0  0  0  0  0  0  0  0  0  0  0
  1  2  1  0
  2  3  2  0
  3  4  1  0
  4  5  2  0
  5  6  1  0
  6  7  2  0
  4  8  1  0
  8  9  2  0
  9 10  1  0
 10 11  1  0
 11 12  2  0
 12 13  1  0
 13 14  2  0
 14 15  1  0
 15 16  2  0
  7  2  1  0
 16  8  1  0
 16 11  1  0
M  END
>  <Molecule>  (397) 
CHEMBL1972988

>  <Standard Type>  (397) 
Ki

>  <Standard Relation>  (397) 
>

>  <Standard Value>  (397) 
5011.87

>  <Standard Units>  (397) 
nM

>  <pChEMBL Value>  (397) 
nan

>  <Comment>  (397) 
inactive

>  <Compound Key>  (397) 
SID103904240

>  <Assay>  (397) 
CHEMBL1963742

>  <Assay Description>  (397) 
PUBCHEM_BIOASSAY: Navigating the Kinome. (Class of assay: other) Panel member name: JAK3

>  <BAO Format>  (397) 
assay format

>  <Target>  (397) 
CHEMBL2148

>  <Target Pref. Name>  (397) 
Tyrosine-protein kinase JAK3

>  <Target Organism>  (397) 
Homo sapiens

>  <Target Type>  (397) 
SINGLE PROTEIN

>  <Document>  (397) 
CHEMBL1201862

>  <Source>  (397) 
PubChem BioAssays

>  <Max Phase>  (397) 
0

>  <#Ro5 Violations>  (397) 
0

>  <Molecular Weight>  (397) 
230.66

>  <Ligand Efficiency BEI>  (397) 
nan

>  <Ligand Efficiency LE>  (397) 
nan

>  <Ligand Efficiency LLE>  (397) 
nan

>  <Ligand Efficiency SEI>  (397) 
nan

>  <ALogP>  (397) 
2.67

>  <Assay Organism>  (397) 
nan

>  <Assay Tissue ChEMBL ID>  (397) 
nan

>  <Assay Tissue Name>  (397) 
nan

>  <Assay Cell Type>  (397) 
nan

>  <Assay Subcellular Fraction>  (397) 
nan

>  <Organism Tax ID>  (397) 
9606

>  <BAO Format ID>  (397) 
BAO_0000019

>  <Published Type>  (397) 
nan

>  <Published Relation>  (397) 
nan

>  <Published Value>  (397) 
nan

>  <Published Units>  (397) 
nan

>  <Canonical Smiles>  (397) 
Clc1cc(ncn1)c2c[nH]c3ncccc23

>  <Data Validity Comment>  (397) 
nan

>  <Document Journal>  (397) 
nan

>  <Document Year>  (397) 
nan

>  <SRC ID>  (397) 
7

>  <UO Units>  (397) 
UO_0000065

>  <Potential Duplicate>  (397) 
False

>  <Class>  (397) 
0

$$$$

     RDKit          2D

 28 30  0  0  0  0  0  0  0  0999 V2000
    3.7500   -1.2990    0.0000 N   0  0  0  0  0  0  0  0  0  0  0  0
    3.0000    0.0000    0.0000 C   0  0  0  0  0  0  0  0  0  0  0  0
    1.5000    0.0000    0.0000 C   0  0  0  0  0  0  0  0  0  0  0  0
    0.7500   -1.2990    0.0000 C   0  0  0  0  0  0  0  0  0  0  0  0
   -0.7500   -1.2990    0.0000 C   0  0  0  0  0  0  0  0  0  0  0  0
   -1.5000    0.0000    0.0000 C   0  0  0  0  0  0  0  0  0  0  0  0
   -3.0000    0.0000    0.0000 C   0  0  0  0  0  0  0  0  0  0  0  0
   -3.7500    1.2990    0.0000 N   0  0  0  0  0  0  0  0  0  0  0  0
   -5.2500    1.2990    0.0000 C   0  0  0  0  0  0  0  0  0  0  0  0
   -6.0000    2.5981    0.0000 N   0  0  0  0  0  0  0  0  0  0  0  0
   -7.5000    2.5981    0.0000 C   0  0  0  0  0  0  0  0  0  0  0  0
   -8.2500    3.8971    0.0000 N   0  0  0  0  0  0  0  0  0  0  0  0
   -7.5000    5.1962    0.0000 C   0  0  0  0  0  0  0  0  0  0  0  0
   -8.2500    6.4952    0.0000 C   0  0  0  0  0  0  0  0  0  0  0  0
   -7.5000    7.7942    0.0000 C   0  0  0  0  0  0  0  0  0  0  0  0
   -8.2500    9.0933    0.0000 C   0  0  0  0  0  0  0  0  0  0  0  0
   -9.7500    9.0933    0.0000 C   0  0  0  0  0  0  0  0  0  0  0  0
  -10.5000    7.7942    0.0000 C   0  0  0  0  0  0  0  0  0  0  0  0
   -9.7500    6.4952    0.0000 C   0  0  0  0  0  0  0  0  0  0  0  0
  -10.5000    5.1962    0.0000 Cl  0  0  0  0  0  0  0  0  0  0  0  0
   -8.2500    1.2990    0.0000 N   0  0  0  0  0  0  0  0  0  0  0  0
   -7.5000    0.0000    0.0000 C   0  0  0  0  0  0  0  0  0  0  0  0
   -6.0000    0.0000    0.0000 C   0  0  0  0  0  0  0  0  0  0  0  0
   -5.2500   -1.2990    0.0000 N   0  0  0  0  0  0  0  0  0  0  0  0
   -3.7500   -1.2990    0.0000 O   0  0  0  0  0  0  0  0  0  0  0  0
   -6.0000   -2.5981    0.0000 O   0  0  0  0  0  0  0  0  0  0  0  0
   -0.7500    1.2990    0.0000 C   0  0  0  0  0  0  0  0  0  0  0  0
    0.7500    1.2990    0.0000 C   0  0  0  0  0  0  0  0  0  0  0  0
  1  2  1  0
  2  3  1  0
  3  4  1  0
  4  5  1  0
  5  6  1  0
  6  7  1  0
  7  8  1  0
  8  9  1  0
  9 10  2  0
 10 11  1  0
 11 12  1  0
 12 13  1  0
 13 14  1  0
 14 15  2  0
 15 16  1  0
 16 17  2  0
 17 18  1  0
 18 19  2  0
 19 20  1  0
 11 21  2  0
 21 22  1  0
 22 23  2  0
 23 24  1  0
 24 25  2  0
 24 26  1  0
  6 27  1  0
 27 28  1  0
 28  3  1  0
 23  9  1  0
 19 14  1  0
M  CHG  2  24   1  26  -1
M  END
>  <Molecule>  (398) 
CHEMBL246970

>  <Standard Type>  (398) 
Ki

>  <Standard Relation>  (398) 
>

>  <Standard Value>  (398) 
1584.89

>  <Standard Units>  (398) 
nM

>  <pChEMBL Value>  (398) 
nan

>  <Comment>  (398) 
inactive

>  <Compound Key>  (398) 
SID103905472

>  <Assay>  (398) 
CHEMBL1963742

>  <Assay Description>  (398) 
PUBCHEM_BIOASSAY: Navigating the Kinome. (Class of assay: other) Panel member name: JAK3

>  <BAO Format>  (398) 
assay format

>  <Target>  (398) 
CHEMBL2148

>  <Target Pref. Name>  (398) 
Tyrosine-protein kinase JAK3

>  <Target Organism>  (398) 
Homo sapiens

>  <Target Type>  (398) 
SINGLE PROTEIN

>  <Document>  (398) 
CHEMBL1201862

>  <Source>  (398) 
PubChem BioAssays

>  <Max Phase>  (398) 
0

>  <#Ro5 Violations>  (398) 
0

>  <Molecular Weight>  (398) 
404.9

>  <Ligand Efficiency BEI>  (398) 
nan

>  <Ligand Efficiency LE>  (398) 
nan

>  <Ligand Efficiency LLE>  (398) 
nan

>  <Ligand Efficiency SEI>  (398) 
nan

>  <ALogP>  (398) 
3.83

>  <Assay Organism>  (398) 
nan

>  <Assay Tissue ChEMBL ID>  (398) 
nan

>  <Assay Tissue Name>  (398) 
nan

>  <Assay Cell Type>  (398) 
nan

>  <Assay Subcellular Fraction>  (398) 
nan

>  <Organism Tax ID>  (398) 
9606

>  <BAO Format ID>  (398) 
BAO_0000019

>  <Published Type>  (398) 
nan

>  <Published Relation>  (398) 
nan

>  <Published Value>  (398) 
nan

>  <Published Units>  (398) 
nan

>  <Canonical Smiles>  (398) 
NCC1CCC(CNc2nc(NCc3ccccc3Cl)ncc2[N+](=O)[O-])CC1

>  <Data Validity Comment>  (398) 
nan

>  <Document Journal>  (398) 
nan

>  <Document Year>  (398) 
nan

>  <SRC ID>  (398) 
7

>  <UO Units>  (398) 
UO_0000065

>  <Potential Duplicate>  (398) 
False

>  <Class>  (398) 
0

$$$$

     RDKit          2D

 34 37  0  0  0  0  0  0  0  0999 V2000
   -6.2961   -1.6453    0.0000 C   0  0  0  0  0  0  0  0  0  0  0  0
   -5.1814   -2.6490    0.0000 C   0  0  0  0  0  0  0  0  0  0  0  0
   -3.7548   -2.1855    0.0000 C   0  0  0  0  0  0  0  0  0  0  0  0
   -2.6401   -3.1891    0.0000 C   0  0  0  0  0  0  0  0  0  0  0  0
   -1.2135   -2.7256    0.0000 N   0  0  0  0  0  0  0  0  0  0  0  0
   -0.0000   -3.6073    0.0000 C   0  0  0  0  0  0  0  0  0  0  0  0
   -0.0000   -5.1073    0.0000 N   0  0  0  0  0  0  0  0  0  0  0  0
   -1.2990   -5.8573    0.0000 C   0  0  0  0  0  0  0  0  0  0  0  0
   -2.5981   -5.1073    0.0000 O   0  0  0  0  0  0  0  0  0  0  0  0
   -1.2990   -7.3573    0.0000 C   0  0  0  0  0  0  0  0  0  0  0  0
   -2.5981   -8.1073    0.0000 C   0  0  0  0  0  0  0  0  0  0  0  0
   -2.5981   -9.6073    0.0000 C   0  0  0  0  0  0  0  0  0  0  0  0
   -1.2990  -10.3573    0.0000 C   0  0  0  0  0  0  0  0  0  0  0  0
   -0.0000   -9.6073    0.0000 C   0  0  0  0  0  0  0  0  0  0  0  0
   -0.0000   -8.1073    0.0000 C   0  0  0  0  0  0  0  0  0  0  0  0
    1.2990  -10.3573    0.0000 C   0  0  0  0  0  0  0  0  0  0  0  0
    2.5981  -11.1073    0.0000 N   0  0  0  0  0  0  0  0  0  0  0  0
    1.2135   -2.7256    0.0000 N   0  0  0  0  0  0  0  0  0  0  0  0
    0.7500   -1.2990    0.0000 C   0  0  0  0  0  0  0  0  0  0  0  0
    1.5000    0.0000    0.0000 C   0  0  0  0  0  0  0  0  0  0  0  0
    0.7500    1.2990    0.0000 C   0  0  0  0  0  0  0  0  0  0  0  0
   -0.7500    1.2990    0.0000 C   0  0  0  0  0  0  0  0  0  0  0  0
   -1.5000    0.0000    0.0000 C   0  0  0  0  0  0  0  0  0  0  0  0
   -0.7500   -1.2990    0.0000 C   0  0  0  0  0  0  0  0  0  0  0  0
    1.5000    2.5981    0.0000 N   0  0  0  0  0  0  0  0  0  0  0  0
    3.0000    2.5981    0.0000 C   0  0  0  0  0  0  0  0  0  0  0  0
    0.7500    3.8971    0.0000 C   0  0  0  0  0  0  0  0  0  0  0  0
   -0.7500    3.8971    0.0000 O   0  0  0  0  0  0  0  0  0  0  0  0
    1.5000    5.1962    0.0000 C   0  0  0  0  0  0  0  0  0  0  0  0
    3.0000    5.1962    0.0000 C   0  0  0  0  0  0  0  0  0  0  0  0
    3.7500    6.4952    0.0000 C   0  0  0  0  0  0  0  0  0  0  0  0
    3.0000    7.7942    0.0000 C   0  0  0  0  0  0  0  0  0  0  0  0
    1.5000    7.7942    0.0000 C   0  0  0  0  0  0  0  0  0  0  0  0
    0.7500    6.4952    0.0000 C   0  0  0  0  0  0  0  0  0  0  0  0
  1  2  1  0
  2  3  1  0
  3  4  1  0
  4  5  1  0
  5  6  1  0
  6  7  1  0
  7  8  1  0
  8  9  2  0
  8 10  1  0
 10 11  2  0
 11 12  1  0
 12 13  2  0
 13 14  1  0
 14 15  2  0
 14 16  1  0
 16 17  3  0
  6 18  2  0
 18 19  1  0
 19 20  2  0
 20 21  1  0
 21 22  2  0
 22 23  1  0
 23 24  2  0
 21 25  1  0
 25 26  1  0
 25 27  1  0
 27 28  2  0
 27 29  1  0
 29 30  1  0
 30 31  1  0
 31 32  1  0
 32 33  1  0
 33 34  1  0
 24  5  1  0
 15 10  1  0
 24 19  1  0
 34 29  1  0
M  END
>  <Molecule>  (399) 
CHEMBL1969301

>  <Standard Type>  (399) 
Ki

>  <Standard Relation>  (399) 
>

>  <Standard Value>  (399) 
1584.89

>  <Standard Units>  (399) 
nM

>  <pChEMBL Value>  (399) 
nan

>  <Comment>  (399) 
inactive

>  <Compound Key>  (399) 
SID103905076

>  <Assay>  (399) 
CHEMBL1963742

>  <Assay Description>  (399) 
PUBCHEM_BIOASSAY: Navigating the Kinome. (Class of assay: other) Panel member name: JAK3

>  <BAO Format>  (399) 
assay format

>  <Target>  (399) 
CHEMBL2148

>  <Target Pref. Name>  (399) 
Tyrosine-protein kinase JAK3

>  <Target Organism>  (399) 
Homo sapiens

>  <Target Type>  (399) 
SINGLE PROTEIN

>  <Document>  (399) 
CHEMBL1201862

>  <Source>  (399) 
PubChem BioAssays

>  <Max Phase>  (399) 
0

>  <#Ro5 Violations>  (399) 
1

>  <Molecular Weight>  (399) 
457.58

>  <Ligand Efficiency BEI>  (399) 
nan

>  <Ligand Efficiency LE>  (399) 
nan

>  <Ligand Efficiency LLE>  (399) 
nan

>  <Ligand Efficiency SEI>  (399) 
nan

>  <ALogP>  (399) 
5.5

>  <Assay Organism>  (399) 
nan

>  <Assay Tissue ChEMBL ID>  (399) 
nan

>  <Assay Tissue Name>  (399) 
nan

>  <Assay Cell Type>  (399) 
nan

>  <Assay Subcellular Fraction>  (399) 
nan

>  <Organism Tax ID>  (399) 
9606

>  <BAO Format ID>  (399) 
BAO_0000019

>  <Published Type>  (399) 
nan

>  <Published Relation>  (399) 
nan

>  <Published Value>  (399) 
nan

>  <Published Units>  (399) 
nan

>  <Canonical Smiles>  (399) 
CCCCn1c(NC(=O)c2cccc(c2)C#N)nc3cc(ccc13)N(C)C(=O)C4CCCCC4

>  <Data Validity Comment>  (399) 
nan

>  <Document Journal>  (399) 
nan

>  <Document Year>  (399) 
nan

>  <SRC ID>  (399) 
7

>  <UO Units>  (399) 
UO_0000065

>  <Potential Duplicate>  (399) 
False

>  <Class>  (399) 
0

$$$$

     RDKit          2D

 34 38  0  0  0  0  0  0  0  0999 V2000
   -9.7730   -5.5068    0.0000 C   0  0  0  0  0  0  0  0  0  0  0  0
   -8.6583   -6.5105    0.0000 O   0  0  0  0  0  0  0  0  0  0  0  0
   -7.2317   -6.0469    0.0000 C   0  0  0  0  0  0  0  0  0  0  0  0
   -6.9199   -4.5797    0.0000 C   0  0  0  0  0  0  0  0  0  0  0  0
   -5.4933   -4.1162    0.0000 C   0  0  0  0  0  0  0  0  0  0  0  0
   -4.3786   -5.1199    0.0000 C   0  0  0  0  0  0  0  0  0  0  0  0
   -4.6904   -6.5871    0.0000 C   0  0  0  0  0  0  0  0  0  0  0  0
   -6.1170   -7.0506    0.0000 C   0  0  0  0  0  0  0  0  0  0  0  0
   -6.4289   -8.5179    0.0000 O   0  0  0  0  0  0  0  0  0  0  0  0
   -5.3142   -9.5216    0.0000 C   0  0  0  0  0  0  0  0  0  0  0  0
   -2.9520   -4.6564    0.0000 C   0  0  0  0  0  0  0  0  0  0  0  0
   -1.8373   -5.6601    0.0000 O   0  0  0  0  0  0  0  0  0  0  0  0
   -2.6401   -3.1891    0.0000 N   0  0  0  0  0  0  0  0  0  0  0  0
   -1.2135   -2.7256    0.0000 C   0  0  0  0  0  0  0  0  0  0  0  0
    0.0000   -3.6073    0.0000 N   0  0  0  0  0  0  0  0  0  0  0  0
    1.2135   -2.7256    0.0000 N   0  0  0  0  0  0  0  0  0  0  0  0
    0.7500   -1.2990    0.0000 C   0  0  0  0  0  0  0  0  0  0  0  0
    1.5000    0.0000    0.0000 C   0  0  0  0  0  0  0  0  0  0  0  0
    0.7500    1.2990    0.0000 C   0  0  0  0  0  0  0  0  0  0  0  0
   -0.7500    1.2990    0.0000 C   0  0  0  0  0  0  0  0  0  0  0  0
   -1.5000    0.0000    0.0000 C   0  0  0  0  0  0  0  0  0  0  0  0
   -0.7500   -1.2990    0.0000 C   0  0  0  0  0  0  0  0  0  0  0  0
   -1.5000    2.5981    0.0000 C   0  0  0  0  0  0  0  0  0  0  0  0
   -2.9918    2.7549    0.0000 C   0  0  0  0  0  0  0  0  0  0  0  0
   -3.3037    4.2221    0.0000 N   0  0  0  0  0  0  0  0  0  0  0  0
   -4.6740    4.8322    0.0000 C   0  0  0  0  0  0  0  0  0  0  0  0
   -4.8308    6.3240    0.0000 C   0  0  0  0  0  0  0  0  0  0  0  0
   -3.6172    7.2057    0.0000 C   0  0  0  0  0  0  0  0  0  0  0  0
   -3.7740    8.6974    0.0000 C   0  0  0  0  0  0  0  0  0  0  0  0
   -5.1443    9.3075    0.0000 C   0  0  0  0  0  0  0  0  0  0  0  0
   -6.3579    8.4259    0.0000 C   0  0  0  0  0  0  0  0  0  0  0  0
   -6.2011    6.9341    0.0000 C   0  0  0  0  0  0  0  0  0  0  0  0
   -2.0046    4.9721    0.0000 N   0  0  0  0  0  0  0  0  0  0  0  0
   -0.8899    3.9684    0.0000 N   0  0  0  0  0  0  0  0  0  0  0  0
  1  2  1  0
  2  3  1  0
  3  4  2  0
  4  5  1  0
  5  6  2  0
  6  7  1  0
  7  8  2  0
  8  9  1  0
  9 10  1  0
  6 11  1  0
 11 12  2  0
 11 13  1  0
 13 14  1  0
 14 15  2  0
 15 16  1  0
 16 17  1  0
 17 18  2  0
 18 19  1  0
 19 20  2  0
 20 21  1  0
 21 22  2  0
 20 23  1  0
 23 24  2  0
 24 25  1  0
 25 26  1  0
 26 27  1  0
 27 28  2  0
 28 29  1  0
 29 30  2  0
 30 31  1  0
 31 32  2  0
 25 33  1  0
 33 34  2  0
  8  3  1  0
 22 14  1  0
 22 17  1  0
 34 23  1  0
 32 27  1  0
M  END
>  <Molecule>  (400) 
CHEMBL1991078

>  <Standard Type>  (400) 
Ki

>  <Standard Relation>  (400) 
=

>  <Standard Value>  (400) 
1000.0

>  <Standard Units>  (400) 
nM

>  <pChEMBL Value>  (400) 
6.0

>  <Comment>  (400) 
active

>  <Compound Key>  (400) 
SID103904505

>  <Assay>  (400) 
CHEMBL1963742

>  <Assay Description>  (400) 
PUBCHEM_BIOASSAY: Navigating the Kinome. (Class of assay: other) Panel member name: JAK3

>  <BAO Format>  (400) 
assay format

>  <Target>  (400) 
CHEMBL2148

>  <Target Pref. Name>  (400) 
Tyrosine-protein kinase JAK3

>  <Target Organism>  (400) 
Homo sapiens

>  <Target Type>  (400) 
SINGLE PROTEIN

>  <Document>  (400) 
CHEMBL1201862

>  <Source>  (400) 
PubChem BioAssays

>  <Max Phase>  (400) 
0

>  <#Ro5 Violations>  (400) 
0

>  <Molecular Weight>  (400) 
454.49

>  <Ligand Efficiency BEI>  (400) 
nan

>  <Ligand Efficiency LE>  (400) 
nan

>  <Ligand Efficiency LLE>  (400) 
nan

>  <Ligand Efficiency SEI>  (400) 
nan

>  <ALogP>  (400) 
4.14

>  <Assay Organism>  (400) 
nan

>  <Assay Tissue ChEMBL ID>  (400) 
nan

>  <Assay Tissue Name>  (400) 
nan

>  <Assay Cell Type>  (400) 
nan

>  <Assay Subcellular Fraction>  (400) 
nan

>  <Organism Tax ID>  (400) 
9606

>  <BAO Format ID>  (400) 
BAO_0000019

>  <Published Type>  (400) 
nan

>  <Published Relation>  (400) 
nan

>  <Published Value>  (400) 
nan

>  <Published Units>  (400) 
nan

>  <Canonical Smiles>  (400) 
COc1ccc(cc1OC)C(=O)Nc2n[nH]c3ccc(cc23)c4cn(Cc5ccccc5)nn4

>  <Data Validity Comment>  (400) 
nan

>  <Document Journal>  (400) 
nan

>  <Document Year>  (400) 
nan

>  <SRC ID>  (400) 
7

>  <UO Units>  (400) 
UO_0000065

>  <Potential Duplicate>  (400) 
False

>  <Class>  (400) 
1

$$$$

     RDKit          2D

 27 30  0  0  0  0  0  0  0  0999 V2000
  -13.9200   -0.0248    0.0000 C   0  0  0  0  0  0  0  0  0  0  0  0
  -12.8053   -1.0285    0.0000 C   0  0  0  0  0  0  0  0  0  0  0  0
  -11.3787   -0.5649    0.0000 C   0  0  0  0  0  0  0  0  0  0  0  0
  -10.2640   -1.5686    0.0000 C   0  0  0  0  0  0  0  0  0  0  0  0
  -10.5759   -3.0359    0.0000 C   0  0  0  0  0  0  0  0  0  0  0  0
   -9.4612   -4.0396    0.0000 N   0  0  0  0  0  0  0  0  0  0  0  0
   -8.0346   -3.5760    0.0000 C   0  0  0  0  0  0  0  0  0  0  0  0
   -7.7227   -2.1088    0.0000 O   0  0  0  0  0  0  0  0  0  0  0  0
   -6.9199   -4.5797    0.0000 N   0  0  0  0  0  0  0  0  0  0  0  0
   -5.4933   -4.1162    0.0000 C   0  0  0  0  0  0  0  0  0  0  0  0
   -4.3786   -5.1199    0.0000 C   0  0  0  0  0  0  0  0  0  0  0  0
   -2.9520   -4.6564    0.0000 C   0  0  0  0  0  0  0  0  0  0  0  0
   -2.6401   -3.1891    0.0000 C   0  0  0  0  0  0  0  0  0  0  0  0
   -3.7548   -2.1855    0.0000 C   0  0  0  0  0  0  0  0  0  0  0  0
   -5.1814   -2.6490    0.0000 C   0  0  0  0  0  0  0  0  0  0  0  0
   -1.2135   -2.7256    0.0000 C   0  0  0  0  0  0  0  0  0  0  0  0
    0.0000   -3.6073    0.0000 C   0  0  0  0  0  0  0  0  0  0  0  0
    1.2135   -2.7256    0.0000 O   0  0  0  0  0  0  0  0  0  0  0  0
    0.7500   -1.2990    0.0000 C   0  0  0  0  0  0  0  0  0  0  0  0
    1.5000    0.0000    0.0000 N   0  0  0  0  0  0  0  0  0  0  0  0
    0.7500    1.2990    0.0000 C   0  0  0  0  0  0  0  0  0  0  0  0
   -0.7500    1.2990    0.0000 N   0  0  0  0  0  0  0  0  0  0  0  0
   -1.5000    0.0000    0.0000 C   0  0  0  0  0  0  0  0  0  0  0  0
   -3.0000    0.0000    0.0000 N   0  0  0  0  0  0  0  0  0  0  0  0
   -0.7500   -1.2990    0.0000 C   0  0  0  0  0  0  0  0  0  0  0  0
  -12.0025   -3.4994    0.0000 C   0  0  0  0  0  0  0  0  0  0  0  0
  -13.1172   -2.4957    0.0000 C   0  0  0  0  0  0  0  0  0  0  0  0
  1  2  1  0
  2  3  2  0
  3  4  1  0
  4  5  2  0
  5  6  1  0
  6  7  1  0
  7  8  2  0
  7  9  1  0
  9 10  1  0
 10 11  2  0
 11 12  1  0
 12 13  2  0
 13 14  1  0
 14 15  2  0
 13 16  1  0
 16 17  2  0
 17 18  1  0
 18 19  1  0
 19 20  2  0
 20 21  1  0
 21 22  2  0
 22 23  1  0
 23 24  1  0
 23 25  2  0
  5 26  1  0
 26 27  2  0
 27  2  1  0
 15 10  1  0
 25 16  1  0
 25 19  1  0
M  END
>  <Molecule>  (401) 
CHEMBL2005828

>  <Standard Type>  (401) 
Ki

>  <Standard Relation>  (401) 
>

>  <Standard Value>  (401) 
1584.89

>  <Standard Units>  (401) 
nM

>  <pChEMBL Value>  (401) 
nan

>  <Comment>  (401) 
inactive

>  <Compound Key>  (401) 
SID103904329

>  <Assay>  (401) 
CHEMBL1963742

>  <Assay Description>  (401) 
PUBCHEM_BIOASSAY: Navigating the Kinome. (Class of assay: other) Panel member name: JAK3

>  <BAO Format>  (401) 
assay format

>  <Target>  (401) 
CHEMBL2148

>  <Target Pref. Name>  (401) 
Tyrosine-protein kinase JAK3

>  <Target Organism>  (401) 
Homo sapiens

>  <Target Type>  (401) 
SINGLE PROTEIN

>  <Document>  (401) 
CHEMBL1201862

>  <Source>  (401) 
PubChem BioAssays

>  <Max Phase>  (401) 
0

>  <#Ro5 Violations>  (401) 
0

>  <Molecular Weight>  (401) 
359.39

>  <Ligand Efficiency BEI>  (401) 
nan

>  <Ligand Efficiency LE>  (401) 
nan

>  <Ligand Efficiency LLE>  (401) 
nan

>  <Ligand Efficiency SEI>  (401) 
nan

>  <ALogP>  (401) 
4.42

>  <Assay Organism>  (401) 
nan

>  <Assay Tissue ChEMBL ID>  (401) 
nan

>  <Assay Tissue Name>  (401) 
nan

>  <Assay Cell Type>  (401) 
nan

>  <Assay Subcellular Fraction>  (401) 
nan

>  <Organism Tax ID>  (401) 
9606

>  <BAO Format ID>  (401) 
BAO_0000019

>  <Published Type>  (401) 
nan

>  <Published Relation>  (401) 
nan

>  <Published Value>  (401) 
nan

>  <Published Units>  (401) 
nan

>  <Canonical Smiles>  (401) 
Cc1ccc(NC(=O)Nc2ccc(cc2)c3coc4ncnc(N)c34)cc1

>  <Data Validity Comment>  (401) 
nan

>  <Document Journal>  (401) 
nan

>  <Document Year>  (401) 
nan

>  <SRC ID>  (401) 
7

>  <UO Units>  (401) 
UO_0000065

>  <Potential Duplicate>  (401) 
False

>  <Class>  (401) 
0

$$$$

     RDKit          2D

 16 18  0  0  0  0  0  0  0  0999 V2000
   -2.6401   -3.1891    0.0000 C   0  0  0  0  0  0  0  0  0  0  0  0
   -1.2135   -2.7256    0.0000 C   0  0  0  0  0  0  0  0  0  0  0  0
   -0.0000   -3.6073    0.0000 N   0  0  0  0  0  0  0  0  0  0  0  0
    1.2135   -2.7256    0.0000 N   0  0  0  0  0  0  0  0  0  0  0  0
    0.7500   -1.2990    0.0000 C   0  0  0  0  0  0  0  0  0  0  0  0
    1.5000    0.0000    0.0000 C   0  0  0  0  0  0  0  0  0  0  0  0
    0.7500    1.2990    0.0000 C   0  0  0  0  0  0  0  0  0  0  0  0
   -0.7500    1.2990    0.0000 C   0  0  0  0  0  0  0  0  0  0  0  0
   -1.5000    0.0000    0.0000 C   0  0  0  0  0  0  0  0  0  0  0  0
   -0.7500   -1.2990    0.0000 C   0  0  0  0  0  0  0  0  0  0  0  0
   -1.5000    2.5981    0.0000 C   0  0  0  0  0  0  0  0  0  0  0  0
   -0.7500    3.8971    0.0000 C   0  0  0  0  0  0  0  0  0  0  0  0
   -1.5000    5.1962    0.0000 C   0  0  0  0  0  0  0  0  0  0  0  0
   -3.0000    5.1962    0.0000 C   0  0  0  0  0  0  0  0  0  0  0  0
   -3.7500    3.8971    0.0000 N   0  0  0  0  0  0  0  0  0  0  0  0
   -3.0000    2.5981    0.0000 C   0  0  0  0  0  0  0  0  0  0  0  0
  1  2  1  0
  2  3  2  0
  3  4  1  0
  4  5  1  0
  5  6  2  0
  6  7  1  0
  7  8  2  0
  8  9  1  0
  9 10  2  0
  8 11  1  0
 11 12  2  0
 12 13  1  0
 13 14  2  0
 14 15  1  0
 15 16  2  0
 10  2  1  0
 10  5  1  0
 16 11  1  0
M  END
>  <Molecule>  (402) 
CHEMBL1967252

>  <Standard Type>  (402) 
Ki

>  <Standard Relation>  (402) 
=

>  <Standard Value>  (402) 
63095.73

>  <Standard Units>  (402) 
nM

>  <pChEMBL Value>  (402) 
4.2

>  <Comment>  (402) 
active

>  <Compound Key>  (402) 
SID103904735

>  <Assay>  (402) 
CHEMBL1963742

>  <Assay Description>  (402) 
PUBCHEM_BIOASSAY: Navigating the Kinome. (Class of assay: other) Panel member name: JAK3

>  <BAO Format>  (402) 
assay format

>  <Target>  (402) 
CHEMBL2148

>  <Target Pref. Name>  (402) 
Tyrosine-protein kinase JAK3

>  <Target Organism>  (402) 
Homo sapiens

>  <Target Type>  (402) 
SINGLE PROTEIN

>  <Document>  (402) 
CHEMBL1201862

>  <Source>  (402) 
PubChem BioAssays

>  <Max Phase>  (402) 
0

>  <#Ro5 Violations>  (402) 
0

>  <Molecular Weight>  (402) 
209.25

>  <Ligand Efficiency BEI>  (402) 
nan

>  <Ligand Efficiency LE>  (402) 
nan

>  <Ligand Efficiency LLE>  (402) 
nan

>  <Ligand Efficiency SEI>  (402) 
nan

>  <ALogP>  (402) 
2.93

>  <Assay Organism>  (402) 
nan

>  <Assay Tissue ChEMBL ID>  (402) 
nan

>  <Assay Tissue Name>  (402) 
nan

>  <Assay Cell Type>  (402) 
nan

>  <Assay Subcellular Fraction>  (402) 
nan

>  <Organism Tax ID>  (402) 
9606

>  <BAO Format ID>  (402) 
BAO_0000019

>  <Published Type>  (402) 
nan

>  <Published Relation>  (402) 
nan

>  <Published Value>  (402) 
nan

>  <Published Units>  (402) 
nan

>  <Canonical Smiles>  (402) 
Cc1n[nH]c2ccc(cc12)c3cccnc3

>  <Data Validity Comment>  (402) 
nan

>  <Document Journal>  (402) 
nan

>  <Document Year>  (402) 
nan

>  <SRC ID>  (402) 
7

>  <UO Units>  (402) 
UO_0000065

>  <Potential Duplicate>  (402) 
False

>  <Class>  (402) 
1

$$$$

     RDKit          2D

 19 21  0  0  0  0  0  0  0  0999 V2000
   -5.7221   -1.8037    0.0000 O   0  0  0  0  0  0  0  0  0  0  0  0
   -4.4231   -2.5537    0.0000 C   0  0  0  0  0  0  0  0  0  0  0  0
   -4.4231   -4.0537    0.0000 O   0  0  0  0  0  0  0  0  0  0  0  0
   -3.1240   -1.8037    0.0000 C   0  0  0  0  0  0  0  0  0  0  0  0
   -1.7537   -2.4138    0.0000 C   0  0  0  0  0  0  0  0  0  0  0  0
   -0.7500   -1.2990    0.0000 C   0  0  0  0  0  0  0  0  0  0  0  0
    0.7500   -1.2990    0.0000 C   0  0  0  0  0  0  0  0  0  0  0  0
    1.5000    0.0000    0.0000 C   0  0  0  0  0  0  0  0  0  0  0  0
    0.7500    1.2990    0.0000 N   0  0  0  0  0  0  0  0  0  0  0  0
   -0.7500    1.2990    0.0000 C   0  0  0  0  0  0  0  0  0  0  0  0
   -1.5000    0.0000    0.0000 C   0  0  0  0  0  0  0  0  0  0  0  0
   -2.9672   -0.3119    0.0000 S   0  0  0  0  0  0  0  0  0  0  0  0
    1.5000   -2.5981    0.0000 C   0  0  0  0  0  0  0  0  0  0  0  0
    0.7500   -3.8971    0.0000 C   0  0  0  0  0  0  0  0  0  0  0  0
    1.5000   -5.1962    0.0000 C   0  0  0  0  0  0  0  0  0  0  0  0
    3.0000   -5.1962    0.0000 C   0  0  0  0  0  0  0  0  0  0  0  0
    3.7500   -3.8971    0.0000 C   0  0  0  0  0  0  0  0  0  0  0  0
    5.2500   -3.8971    0.0000 F   0  0  0  0  0  0  0  0  0  0  0  0
    3.0000   -2.5981    0.0000 C   0  0  0  0  0  0  0  0  0  0  0  0
  1  2  1  0
  2  3  2  0
  2  4  1  0
  4  5  2  0
  5  6  1  0
  6  7  2  0
  7  8  1  0
  8  9  2  0
  9 10  1  0
 10 11  2  0
 11 12  1  0
  7 13  1  0
 13 14  2  0
 14 15  1  0
 15 16  2  0
 16 17  1  0
 17 18  1  0
 17 19  2  0
 12  4  1  0
 11  6  1  0
 19 13  1  0
M  END
>  <Molecule>  (403) 
CHEMBL1974457

>  <Standard Type>  (403) 
Ki

>  <Standard Relation>  (403) 
>

>  <Standard Value>  (403) 
1584.89

>  <Standard Units>  (403) 
nM

>  <pChEMBL Value>  (403) 
nan

>  <Comment>  (403) 
inactive

>  <Compound Key>  (403) 
SID103905049

>  <Assay>  (403) 
CHEMBL1963742

>  <Assay Description>  (403) 
PUBCHEM_BIOASSAY: Navigating the Kinome. (Class of assay: other) Panel member name: JAK3

>  <BAO Format>  (403) 
assay format

>  <Target>  (403) 
CHEMBL2148

>  <Target Pref. Name>  (403) 
Tyrosine-protein kinase JAK3

>  <Target Organism>  (403) 
Homo sapiens

>  <Target Type>  (403) 
SINGLE PROTEIN

>  <Document>  (403) 
CHEMBL1201862

>  <Source>  (403) 
PubChem BioAssays

>  <Max Phase>  (403) 
0

>  <#Ro5 Violations>  (403) 
0

>  <Molecular Weight>  (403) 
273.29

>  <Ligand Efficiency BEI>  (403) 
nan

>  <Ligand Efficiency LE>  (403) 
nan

>  <Ligand Efficiency LLE>  (403) 
nan

>  <Ligand Efficiency SEI>  (403) 
nan

>  <ALogP>  (403) 
3.8

>  <Assay Organism>  (403) 
nan

>  <Assay Tissue ChEMBL ID>  (403) 
nan

>  <Assay Tissue Name>  (403) 
nan

>  <Assay Cell Type>  (403) 
nan

>  <Assay Subcellular Fraction>  (403) 
nan

>  <Organism Tax ID>  (403) 
9606

>  <BAO Format ID>  (403) 
BAO_0000019

>  <Published Type>  (403) 
nan

>  <Published Relation>  (403) 
nan

>  <Published Value>  (403) 
nan

>  <Published Units>  (403) 
nan

>  <Canonical Smiles>  (403) 
OC(=O)c1cc2c(cncc2s1)c3cccc(F)c3

>  <Data Validity Comment>  (403) 
nan

>  <Document Journal>  (403) 
nan

>  <Document Year>  (403) 
nan

>  <SRC ID>  (403) 
7

>  <UO Units>  (403) 
UO_0000065

>  <Potential Duplicate>  (403) 
False

>  <Class>  (403) 
0

$$$$

     RDKit          2D

 34 38  0  0  0  0  0  0  0  0999 V2000
   -1.5000  -15.5885    0.0000 C   0  0  0  0  0  0  0  0  0  0  0  0
   -0.7500  -14.2894    0.0000 C   0  0  0  0  0  0  0  0  0  0  0  0
    0.7500  -14.2894    0.0000 C   0  0  0  0  0  0  0  0  0  0  0  0
   -1.5000  -12.9904    0.0000 N   0  0  0  0  0  0  0  0  0  0  0  0
   -0.7500  -11.6913    0.0000 C   0  0  0  0  0  0  0  0  0  0  0  0
    0.7500  -11.6913    0.0000 O   0  0  0  0  0  0  0  0  0  0  0  0
   -1.5000  -10.3923    0.0000 C   0  0  0  0  0  0  0  0  0  0  0  0
   -0.7500   -9.0933    0.0000 O   0  0  0  0  0  0  0  0  0  0  0  0
   -1.5000   -7.7942    0.0000 C   0  0  0  0  0  0  0  0  0  0  0  0
   -3.0000   -7.7942    0.0000 C   0  0  0  0  0  0  0  0  0  0  0  0
   -3.7500   -6.4952    0.0000 C   0  0  0  0  0  0  0  0  0  0  0  0
   -3.0000   -5.1962    0.0000 C   0  0  0  0  0  0  0  0  0  0  0  0
   -1.5000   -5.1962    0.0000 C   0  0  0  0  0  0  0  0  0  0  0  0
   -0.7500   -6.4952    0.0000 C   0  0  0  0  0  0  0  0  0  0  0  0
   -0.7500   -3.8971    0.0000 C   0  0  0  0  0  0  0  0  0  0  0  0
    0.7500   -3.8971    0.0000 N   0  0  0  0  0  0  0  0  0  0  0  0
    1.5000   -2.5981    0.0000 C   0  0  0  0  0  0  0  0  0  0  0  0
    3.0000   -2.5981    0.0000 N   0  0  0  0  0  0  0  0  0  0  0  0
    3.7500   -3.8971    0.0000 C   0  0  0  0  0  0  0  0  0  0  0  0
    3.0000   -5.1962    0.0000 C   0  0  0  0  0  0  0  0  0  0  0  0
    3.7500   -6.4952    0.0000 C   0  0  0  0  0  0  0  0  0  0  0  0
    5.2500   -6.4952    0.0000 C   0  0  0  0  0  0  0  0  0  0  0  0
    6.2537   -7.6099    0.0000 N   0  0  0  0  0  0  0  0  0  0  0  0
    7.6240   -6.9998    0.0000 N   0  0  0  0  0  0  0  0  0  0  0  0
    7.4672   -5.5080    0.0000 C   0  0  0  0  0  0  0  0  0  0  0  0
    6.0000   -5.1962    0.0000 C   0  0  0  0  0  0  0  0  0  0  0  0
    5.2500   -3.8971    0.0000 C   0  0  0  0  0  0  0  0  0  0  0  0
    0.7500   -1.2990    0.0000 C   0  0  0  0  0  0  0  0  0  0  0  0
    1.5000    0.0000    0.0000 C   0  0  0  0  0  0  0  0  0  0  0  0
    0.7500    1.2990    0.0000 C   0  0  0  0  0  0  0  0  0  0  0  0
   -0.7500    1.2990    0.0000 C   0  0  0  0  0  0  0  0  0  0  0  0
   -1.5000    0.0000    0.0000 C   0  0  0  0  0  0  0  0  0  0  0  0
   -0.7500   -1.2990    0.0000 C   0  0  0  0  0  0  0  0  0  0  0  0
   -1.5000   -2.5981    0.0000 N   0  0  0  0  0  0  0  0  0  0  0  0
  1  2  1  0
  2  3  1  0
  2  4  1  0
  4  5  1  0
  5  6  2  0
  5  7  1  0
  7  8  1  0
  8  9  1  0
  9 10  2  0
 10 11  1  0
 11 12  2  0
 12 13  1  0
 13 14  2  0
 13 15  1  0
 15 16  2  0
 16 17  1  0
 17 18  1  0
 18 19  1  0
 19 20  2  0
 20 21  1  0
 21 22  2  0
 22 23  1  0
 23 24  1  0
 24 25  2  0
 25 26  1  0
 26 27  2  0
 17 28  2  0
 28 29  1  0
 29 30  2  0
 30 31  1  0
 31 32  2  0
 32 33  1  0
 33 34  2  0
 14  9  1  0
 34 15  1  0
 27 19  1  0
 26 22  1  0
 33 28  1  0
M  END
>  <Molecule>  (404) 
CHEMBL2005186

>  <Standard Type>  (404) 
Ki

>  <Standard Relation>  (404) 
>

>  <Standard Value>  (404) 
1584.89

>  <Standard Units>  (404) 
nM

>  <pChEMBL Value>  (404) 
nan

>  <Comment>  (404) 
inactive

>  <Compound Key>  (404) 
SID103905007

>  <Assay>  (404) 
CHEMBL1963742

>  <Assay Description>  (404) 
PUBCHEM_BIOASSAY: Navigating the Kinome. (Class of assay: other) Panel member name: JAK3

>  <BAO Format>  (404) 
assay format

>  <Target>  (404) 
CHEMBL2148

>  <Target Pref. Name>  (404) 
Tyrosine-protein kinase JAK3

>  <Target Organism>  (404) 
Homo sapiens

>  <Target Type>  (404) 
SINGLE PROTEIN

>  <Document>  (404) 
CHEMBL1201862

>  <Source>  (404) 
PubChem BioAssays

>  <Max Phase>  (404) 
0

>  <#Ro5 Violations>  (404) 
0

>  <Molecular Weight>  (404) 
452.52

>  <Ligand Efficiency BEI>  (404) 
nan

>  <Ligand Efficiency LE>  (404) 
nan

>  <Ligand Efficiency LLE>  (404) 
nan

>  <Ligand Efficiency SEI>  (404) 
nan

>  <ALogP>  (404) 
4.82

>  <Assay Organism>  (404) 
nan

>  <Assay Tissue ChEMBL ID>  (404) 
nan

>  <Assay Tissue Name>  (404) 
nan

>  <Assay Cell Type>  (404) 
nan

>  <Assay Subcellular Fraction>  (404) 
nan

>  <Organism Tax ID>  (404) 
9606

>  <BAO Format ID>  (404) 
BAO_0000019

>  <Published Type>  (404) 
nan

>  <Published Relation>  (404) 
nan

>  <Published Value>  (404) 
nan

>  <Published Units>  (404) 
nan

>  <Canonical Smiles>  (404) 
CC(C)NC(=O)COc1cccc(c1)c2nc(Nc3ccc4[nH]ncc4c3)c5ccccc5n2

>  <Data Validity Comment>  (404) 
nan

>  <Document Journal>  (404) 
nan

>  <Document Year>  (404) 
nan

>  <SRC ID>  (404) 
7

>  <UO Units>  (404) 
UO_0000065

>  <Potential Duplicate>  (404) 
False

>  <Class>  (404) 
0

$$$$

     RDKit          2D

 23 25  0  0  0  0  0  0  0  0999 V2000
   -7.5900    4.7638    0.0000 C   0  0  0  0  0  0  0  0  0  0  0  0
   -7.9018    3.2966    0.0000 C   0  0  0  0  0  0  0  0  0  0  0  0
   -6.7871    2.2929    0.0000 C   0  0  0  0  0  0  0  0  0  0  0  0
   -7.0990    0.8256    0.0000 C   0  0  0  0  0  0  0  0  0  0  0  0
   -5.9843   -0.1781    0.0000 C   0  0  0  0  0  0  0  0  0  0  0  0
   -4.5577    0.2855    0.0000 O   0  0  0  0  0  0  0  0  0  0  0  0
   -6.2961   -1.6453    0.0000 N   0  0  0  0  0  0  0  0  0  0  0  0
   -5.1814   -2.6490    0.0000 C   0  0  0  0  0  0  0  0  0  0  0  0
   -3.7548   -2.1855    0.0000 C   0  0  0  0  0  0  0  0  0  0  0  0
   -2.6401   -3.1891    0.0000 C   0  0  0  0  0  0  0  0  0  0  0  0
   -2.9520   -4.6564    0.0000 C   0  0  0  0  0  0  0  0  0  0  0  0
   -4.3786   -5.1199    0.0000 C   0  0  0  0  0  0  0  0  0  0  0  0
   -4.6904   -6.5871    0.0000 Cl  0  0  0  0  0  0  0  0  0  0  0  0
   -5.4933   -4.1162    0.0000 N   0  0  0  0  0  0  0  0  0  0  0  0
   -1.2135   -2.7256    0.0000 C   0  0  0  0  0  0  0  0  0  0  0  0
    0.0000   -3.6073    0.0000 C   0  0  0  0  0  0  0  0  0  0  0  0
    1.2135   -2.7256    0.0000 N   0  0  0  0  0  0  0  0  0  0  0  0
    0.7500   -1.2990    0.0000 C   0  0  0  0  0  0  0  0  0  0  0  0
    1.5000    0.0000    0.0000 N   0  0  0  0  0  0  0  0  0  0  0  0
    0.7500    1.2990    0.0000 C   0  0  0  0  0  0  0  0  0  0  0  0
   -0.7500    1.2990    0.0000 C   0  0  0  0  0  0  0  0  0  0  0  0
   -1.5000    0.0000    0.0000 C   0  0  0  0  0  0  0  0  0  0  0  0
   -0.7500   -1.2990    0.0000 C   0  0  0  0  0  0  0  0  0  0  0  0
  1  2  1  0
  2  3  1  0
  3  4  1  0
  4  5  1  0
  5  6  2  0
  5  7  1  0
  7  8  1  0
  8  9  2  0
  9 10  1  0
 10 11  2  0
 11 12  1  0
 12 13  1  0
 12 14  2  0
 10 15  1  0
 15 16  2  0
 16 17  1  0
 17 18  1  0
 18 19  2  0
 19 20  1  0
 20 21  2  0
 21 22  1  0
 22 23  2  0
 14  8  1  0
 23 15  1  0
 23 18  1  0
M  END
>  <Molecule>  (405) 
CHEMBL2006450

>  <Standard Type>  (405) 
Ki

>  <Standard Relation>  (405) 
>

>  <Standard Value>  (405) 
5011.87

>  <Standard Units>  (405) 
nM

>  <pChEMBL Value>  (405) 
nan

>  <Comment>  (405) 
inactive

>  <Compound Key>  (405) 
SID103904262

>  <Assay>  (405) 
CHEMBL1963742

>  <Assay Description>  (405) 
PUBCHEM_BIOASSAY: Navigating the Kinome. (Class of assay: other) Panel member name: JAK3

>  <BAO Format>  (405) 
assay format

>  <Target>  (405) 
CHEMBL2148

>  <Target Pref. Name>  (405) 
Tyrosine-protein kinase JAK3

>  <Target Organism>  (405) 
Homo sapiens

>  <Target Type>  (405) 
SINGLE PROTEIN

>  <Document>  (405) 
CHEMBL1201862

>  <Source>  (405) 
PubChem BioAssays

>  <Max Phase>  (405) 
0

>  <#Ro5 Violations>  (405) 
0

>  <Molecular Weight>  (405) 
328.8

>  <Ligand Efficiency BEI>  (405) 
nan

>  <Ligand Efficiency LE>  (405) 
nan

>  <Ligand Efficiency LLE>  (405) 
nan

>  <Ligand Efficiency SEI>  (405) 
nan

>  <ALogP>  (405) 
4.41

>  <Assay Organism>  (405) 
nan

>  <Assay Tissue ChEMBL ID>  (405) 
nan

>  <Assay Tissue Name>  (405) 
nan

>  <Assay Cell Type>  (405) 
nan

>  <Assay Subcellular Fraction>  (405) 
nan

>  <Organism Tax ID>  (405) 
9606

>  <BAO Format ID>  (405) 
BAO_0000019

>  <Published Type>  (405) 
nan

>  <Published Relation>  (405) 
nan

>  <Published Value>  (405) 
nan

>  <Published Units>  (405) 
nan

>  <Canonical Smiles>  (405) 
CCCCC(=O)Nc1cc(cc(Cl)n1)c2c[nH]c3ncccc23

>  <Data Validity Comment>  (405) 
nan

>  <Document Journal>  (405) 
nan

>  <Document Year>  (405) 
nan

>  <SRC ID>  (405) 
7

>  <UO Units>  (405) 
UO_0000065

>  <Potential Duplicate>  (405) 
False

>  <Class>  (405) 
0

$$$$

     RDKit          2D

 24 27  0  0  0  0  0  0  0  0999 V2000
    2.7648    0.1828    0.0000 C   0  0  0  0  0  0  0  0  0  0  0  0
    1.2760    0.0000    0.0000 C   0  0  0  0  0  0  0  0  0  0  0  0
    0.3943    1.2135    0.0000 N   0  0  0  0  0  0  0  0  0  0  0  0
   -1.0323    0.7500    0.0000 N   0  0  0  0  0  0  0  0  0  0  0  0
   -1.0323   -0.7500    0.0000 C   0  0  0  0  0  0  0  0  0  0  0  0
   -2.1470   -1.7537    0.0000 N   0  0  0  0  0  0  0  0  0  0  0  0
   -1.8351   -3.2209    0.0000 C   0  0  0  0  0  0  0  0  0  0  0  0
   -0.4086   -3.6844    0.0000 C   0  0  0  0  0  0  0  0  0  0  0  0
    0.7062   -2.6807    0.0000 C   0  0  0  0  0  0  0  0  0  0  0  0
    2.1328   -3.1443    0.0000 C   0  0  0  0  0  0  0  0  0  0  0  0
    2.4446   -4.6115    0.0000 C   0  0  0  0  0  0  0  0  0  0  0  0
    3.8712   -5.0750    0.0000 C   0  0  0  0  0  0  0  0  0  0  0  0
    4.9859   -4.0713    0.0000 C   0  0  0  0  0  0  0  0  0  0  0  0
    4.6741   -2.6041    0.0000 C   0  0  0  0  0  0  0  0  0  0  0  0
    3.2475   -2.1406    0.0000 C   0  0  0  0  0  0  0  0  0  0  0  0
    3.1168   -0.6463    0.0000 F   0  0  0  0  0  0  0  0  0  0  0  0
    0.3943   -1.2135    0.0000 C   0  0  0  0  0  0  0  0  0  0  0  0
   -0.0967   -5.1517    0.0000 C   0  0  0  0  0  0  0  0  0  0  0  0
    1.3299   -5.6152    0.0000 O   0  0  0  0  0  0  0  0  0  0  0  0
   -1.2114   -6.1554    0.0000 C   0  0  0  0  0  0  0  0  0  0  0  0
   -2.6380   -5.6918    0.0000 C   0  0  0  0  0  0  0  0  0  0  0  0
   -4.1371   -5.7442    0.0000 C   0  0  0  0  0  0  0  0  0  0  0  0
   -2.8467   -7.1772    0.0000 C   0  0  0  0  0  0  0  0  0  0  0  0
   -2.9499   -4.2246    0.0000 C   0  0  0  0  0  0  0  0  0  0  0  0
  1  2  1  0
  2  3  2  0
  3  4  1  0
  4  5  1  0
  5  6  1  0
  6  7  1  0
  7  8  2  0
  8  9  1  0
  9 10  1  0
 10 11  2  0
 11 12  1  0
 12 13  2  0
 13 14  1  0
 14 15  2  0
 15 16  1  0
  9 17  1  0
  8 18  1  0
 18 19  2  0
 18 20  1  0
 20 21  1  0
 21 22  1  0
 21 23  1  0
 21 24  1  0
 17  2  1  0
 17  5  2  0
 24  7  1  0
 15 10  1  0
M  END
>  <Molecule>  (406) 
CHEMBL1966703

>  <Standard Type>  (406) 
Ki

>  <Standard Relation>  (406) 
>

>  <Standard Value>  (406) 
1584.89

>  <Standard Units>  (406) 
nM

>  <pChEMBL Value>  (406) 
nan

>  <Comment>  (406) 
inactive

>  <Compound Key>  (406) 
SID103905100

>  <Assay>  (406) 
CHEMBL1963742

>  <Assay Description>  (406) 
PUBCHEM_BIOASSAY: Navigating the Kinome. (Class of assay: other) Panel member name: JAK3

>  <BAO Format>  (406) 
assay format

>  <Target>  (406) 
CHEMBL2148

>  <Target Pref. Name>  (406) 
Tyrosine-protein kinase JAK3

>  <Target Organism>  (406) 
Homo sapiens

>  <Target Type>  (406) 
SINGLE PROTEIN

>  <Document>  (406) 
CHEMBL1201862

>  <Source>  (406) 
PubChem BioAssays

>  <Max Phase>  (406) 
0

>  <#Ro5 Violations>  (406) 
0

>  <Molecular Weight>  (406) 
325.39

>  <Ligand Efficiency BEI>  (406) 
nan

>  <Ligand Efficiency LE>  (406) 
nan

>  <Ligand Efficiency LLE>  (406) 
nan

>  <Ligand Efficiency SEI>  (406) 
nan

>  <ALogP>  (406) 
4.06

>  <Assay Organism>  (406) 
nan

>  <Assay Tissue ChEMBL ID>  (406) 
nan

>  <Assay Tissue Name>  (406) 
nan

>  <Assay Cell Type>  (406) 
nan

>  <Assay Subcellular Fraction>  (406) 
nan

>  <Organism Tax ID>  (406) 
9606

>  <BAO Format ID>  (406) 
BAO_0000019

>  <Published Type>  (406) 
nan

>  <Published Relation>  (406) 
nan

>  <Published Value>  (406) 
nan

>  <Published Units>  (406) 
nan

>  <Canonical Smiles>  (406) 
Cc1n[nH]c2NC3=C(C(c4ccccc4F)c12)C(=O)CC(C)(C)C3

>  <Data Validity Comment>  (406) 
nan

>  <Document Journal>  (406) 
nan

>  <Document Year>  (406) 
nan

>  <SRC ID>  (406) 
7

>  <UO Units>  (406) 
UO_0000065

>  <Potential Duplicate>  (406) 
False

>  <Class>  (406) 
0

$$$$

     RDKit          2D

 31 34  0  0  0  0  0  0  0  0999 V2000
   -4.0819    0.6918    0.0000 C   0  0  0  0  0  0  0  0  0  0  0  0
   -2.9672   -0.3119    0.0000 N   0  0  0  0  0  0  0  0  0  0  0  0
   -3.1240   -1.8037    0.0000 N   0  0  0  0  0  0  0  0  0  0  0  0
   -1.7537   -2.4138    0.0000 C   0  0  0  0  0  0  0  0  0  0  0  0
   -1.4418   -3.8810    0.0000 N   0  0  0  0  0  0  0  0  0  0  0  0
   -0.7500   -1.2990    0.0000 C   0  0  0  0  0  0  0  0  0  0  0  0
    0.7500   -1.2990    0.0000 C   0  0  0  0  0  0  0  0  0  0  0  0
    1.5000    0.0000    0.0000 C   0  0  0  0  0  0  0  0  0  0  0  0
    0.7500    1.2990    0.0000 N   0  0  0  0  0  0  0  0  0  0  0  0
   -0.7500    1.2990    0.0000 C   0  0  0  0  0  0  0  0  0  0  0  0
   -1.5000    0.0000    0.0000 C   0  0  0  0  0  0  0  0  0  0  0  0
    1.5000   -2.5981    0.0000 C   0  0  0  0  0  0  0  0  0  0  0  0
    0.7500   -3.8971    0.0000 C   0  0  0  0  0  0  0  0  0  0  0  0
    1.5000   -5.1962    0.0000 C   0  0  0  0  0  0  0  0  0  0  0  0
    3.0000   -5.1962    0.0000 C   0  0  0  0  0  0  0  0  0  0  0  0
    3.7500   -6.4952    0.0000 N   0  0  0  0  0  0  0  0  0  0  0  0
    3.0000   -7.7942    0.0000 C   0  0  0  0  0  0  0  0  0  0  0  0
    1.5000   -7.7942    0.0000 O   0  0  0  0  0  0  0  0  0  0  0  0
    3.7500   -9.0933    0.0000 N   0  0  0  0  0  0  0  0  0  0  0  0
    3.0000  -10.3923    0.0000 C   0  0  0  0  0  0  0  0  0  0  0  0
    1.5000  -10.3923    0.0000 C   0  0  0  0  0  0  0  0  0  0  0  0
    0.7500  -11.6913    0.0000 C   0  0  0  0  0  0  0  0  0  0  0  0
    1.5000  -12.9904    0.0000 C   0  0  0  0  0  0  0  0  0  0  0  0
    3.0000  -12.9904    0.0000 C   0  0  0  0  0  0  0  0  0  0  0  0
    3.7500  -11.6913    0.0000 C   0  0  0  0  0  0  0  0  0  0  0  0
    3.7500  -14.2894    0.0000 C   0  0  0  0  0  0  0  0  0  0  0  0
    4.5000  -15.5885    0.0000 F   0  0  0  0  0  0  0  0  0  0  0  0
    2.4510  -15.0394    0.0000 F   0  0  0  0  0  0  0  0  0  0  0  0
    5.0490  -13.5394    0.0000 F   0  0  0  0  0  0  0  0  0  0  0  0
    3.7500   -3.8971    0.0000 C   0  0  0  0  0  0  0  0  0  0  0  0
    3.0000   -2.5981    0.0000 C   0  0  0  0  0  0  0  0  0  0  0  0
  1  2  1  0
  2  3  1  0
  3  4  2  0
  4  5  1  0
  4  6  1  0
  6  7  2  0
  7  8  1  0
  8  9  2  0
  9 10  1  0
 10 11  2  0
  7 12  1  0
 12 13  2  0
 13 14  1  0
 14 15  2  0
 15 16  1  0
 16 17  1  0
 17 18  2  0
 17 19  1  0
 19 20  1  0
 20 21  2  0
 21 22  1  0
 22 23  2  0
 23 24  1  0
 24 25  2  0
 24 26  1  0
 26 27  1  0
 26 28  1  0
 26 29  1  0
 15 30  1  0
 30 31  2  0
 11  2  1  0
 11  6  1  0
 31 12  1  0
 25 20  1  0
M  END
>  <Molecule>  (407) 
CHEMBL1964692

>  <Standard Type>  (407) 
Ki

>  <Standard Relation>  (407) 
=

>  <Standard Value>  (407) 
1258.93

>  <Standard Units>  (407) 
nM

>  <pChEMBL Value>  (407) 
5.9

>  <Comment>  (407) 
active

>  <Compound Key>  (407) 
SID103904366

>  <Assay>  (407) 
CHEMBL1963742

>  <Assay Description>  (407) 
PUBCHEM_BIOASSAY: Navigating the Kinome. (Class of assay: other) Panel member name: JAK3

>  <BAO Format>  (407) 
assay format

>  <Target>  (407) 
CHEMBL2148

>  <Target Pref. Name>  (407) 
Tyrosine-protein kinase JAK3

>  <Target Organism>  (407) 
Homo sapiens

>  <Target Type>  (407) 
SINGLE PROTEIN

>  <Document>  (407) 
CHEMBL1201862

>  <Source>  (407) 
PubChem BioAssays

>  <Max Phase>  (407) 
0

>  <#Ro5 Violations>  (407) 
0

>  <Molecular Weight>  (407) 
426.4

>  <Ligand Efficiency BEI>  (407) 
nan

>  <Ligand Efficiency LE>  (407) 
nan

>  <Ligand Efficiency LLE>  (407) 
nan

>  <Ligand Efficiency SEI>  (407) 
nan

>  <ALogP>  (407) 
4.88

>  <Assay Organism>  (407) 
nan

>  <Assay Tissue ChEMBL ID>  (407) 
nan

>  <Assay Tissue Name>  (407) 
nan

>  <Assay Cell Type>  (407) 
nan

>  <Assay Subcellular Fraction>  (407) 
nan

>  <Organism Tax ID>  (407) 
9606

>  <BAO Format ID>  (407) 
BAO_0000019

>  <Published Type>  (407) 
nan

>  <Published Relation>  (407) 
nan

>  <Published Value>  (407) 
nan

>  <Published Units>  (407) 
nan

>  <Canonical Smiles>  (407) 
Cn1nc(N)c2c(cncc12)c3ccc(NC(=O)Nc4cccc(c4)C(F)(F)F)cc3

>  <Data Validity Comment>  (407) 
nan

>  <Document Journal>  (407) 
nan

>  <Document Year>  (407) 
nan

>  <SRC ID>  (407) 
7

>  <UO Units>  (407) 
UO_0000065

>  <Potential Duplicate>  (407) 
False

>  <Class>  (407) 
1

$$$$

     RDKit          2D

 28 31  0  0  0  0  0  0  0  0999 V2000
  -14.5438   -2.9592    0.0000 C   0  0  0  0  0  0  0  0  0  0  0  0
  -13.1172   -2.4957    0.0000 C   0  0  0  0  0  0  0  0  0  0  0  0
  -12.8053   -1.0285    0.0000 C   0  0  0  0  0  0  0  0  0  0  0  0
  -11.3787   -0.5649    0.0000 C   0  0  0  0  0  0  0  0  0  0  0  0
  -10.2640   -1.5686    0.0000 C   0  0  0  0  0  0  0  0  0  0  0  0
   -8.8374   -1.1051    0.0000 F   0  0  0  0  0  0  0  0  0  0  0  0
  -10.5759   -3.0359    0.0000 C   0  0  0  0  0  0  0  0  0  0  0  0
   -9.4612   -4.0396    0.0000 N   0  0  0  0  0  0  0  0  0  0  0  0
   -8.0346   -3.5760    0.0000 C   0  0  0  0  0  0  0  0  0  0  0  0
   -7.7227   -2.1088    0.0000 O   0  0  0  0  0  0  0  0  0  0  0  0
   -6.9199   -4.5797    0.0000 N   0  0  0  0  0  0  0  0  0  0  0  0
   -5.4933   -4.1162    0.0000 C   0  0  0  0  0  0  0  0  0  0  0  0
   -4.3786   -5.1199    0.0000 C   0  0  0  0  0  0  0  0  0  0  0  0
   -2.9520   -4.6564    0.0000 C   0  0  0  0  0  0  0  0  0  0  0  0
   -2.6401   -3.1891    0.0000 C   0  0  0  0  0  0  0  0  0  0  0  0
   -3.7548   -2.1855    0.0000 C   0  0  0  0  0  0  0  0  0  0  0  0
   -5.1814   -2.6490    0.0000 C   0  0  0  0  0  0  0  0  0  0  0  0
   -1.2135   -2.7256    0.0000 C   0  0  0  0  0  0  0  0  0  0  0  0
    0.0000   -3.6073    0.0000 N   0  0  0  0  0  0  0  0  0  0  0  0
    1.2135   -2.7256    0.0000 S   0  0  0  0  0  0  0  0  0  0  0  0
    0.7500   -1.2990    0.0000 C   0  0  0  0  0  0  0  0  0  0  0  0
    1.5000    0.0000    0.0000 N   0  0  0  0  0  0  0  0  0  0  0  0
    0.7500    1.2990    0.0000 C   0  0  0  0  0  0  0  0  0  0  0  0
   -0.7500    1.2990    0.0000 N   0  0  0  0  0  0  0  0  0  0  0  0
   -1.5000    0.0000    0.0000 C   0  0  0  0  0  0  0  0  0  0  0  0
   -3.0000    0.0000    0.0000 N   0  0  0  0  0  0  0  0  0  0  0  0
   -0.7500   -1.2990    0.0000 C   0  0  0  0  0  0  0  0  0  0  0  0
  -12.0025   -3.4994    0.0000 C   0  0  0  0  0  0  0  0  0  0  0  0
  1  2  1  0
  2  3  2  0
  3  4  1  0
  4  5  2  0
  5  6  1  0
  5  7  1  0
  7  8  1  0
  8  9  1  0
  9 10  2  0
  9 11  1  0
 11 12  1  0
 12 13  2  0
 13 14  1  0
 14 15  2  0
 15 16  1  0
 16 17  2  0
 15 18  1  0
 18 19  2  0
 19 20  1  0
 20 21  1  0
 21 22  2  0
 22 23  1  0
 23 24  2  0
 24 25  1  0
 25 26  1  0
 25 27  2  0
  7 28  2  0
 28  2  1  0
 17 12  1  0
 27 18  1  0
 27 21  1  0
M  END
>  <Molecule>  (408) 
CHEMBL262433

>  <Standard Type>  (408) 
Ki

>  <Standard Relation>  (408) 
>

>  <Standard Value>  (408) 
1584.89

>  <Standard Units>  (408) 
nM

>  <pChEMBL Value>  (408) 
nan

>  <Comment>  (408) 
inactive

>  <Compound Key>  (408) 
SID103904346

>  <Assay>  (408) 
CHEMBL1963742

>  <Assay Description>  (408) 
PUBCHEM_BIOASSAY: Navigating the Kinome. (Class of assay: other) Panel member name: JAK3

>  <BAO Format>  (408) 
assay format

>  <Target>  (408) 
CHEMBL2148

>  <Target Pref. Name>  (408) 
Tyrosine-protein kinase JAK3

>  <Target Organism>  (408) 
Homo sapiens

>  <Target Type>  (408) 
SINGLE PROTEIN

>  <Document>  (408) 
CHEMBL1201862

>  <Source>  (408) 
PubChem BioAssays

>  <Max Phase>  (408) 
0

>  <#Ro5 Violations>  (408) 
0

>  <Molecular Weight>  (408) 
394.44

>  <Ligand Efficiency BEI>  (408) 
nan

>  <Ligand Efficiency LE>  (408) 
nan

>  <Ligand Efficiency LLE>  (408) 
nan

>  <Ligand Efficiency SEI>  (408) 
nan

>  <ALogP>  (408) 
4.43

>  <Assay Organism>  (408) 
nan

>  <Assay Tissue ChEMBL ID>  (408) 
nan

>  <Assay Tissue Name>  (408) 
nan

>  <Assay Cell Type>  (408) 
nan

>  <Assay Subcellular Fraction>  (408) 
nan

>  <Organism Tax ID>  (408) 
9606

>  <BAO Format ID>  (408) 
BAO_0000019

>  <Published Type>  (408) 
nan

>  <Published Relation>  (408) 
nan

>  <Published Value>  (408) 
nan

>  <Published Units>  (408) 
nan

>  <Canonical Smiles>  (408) 
Cc1ccc(F)c(NC(=O)Nc2ccc(cc2)c3nsc4ncnc(N)c34)c1

>  <Data Validity Comment>  (408) 
nan

>  <Document Journal>  (408) 
nan

>  <Document Year>  (408) 
nan

>  <SRC ID>  (408) 
7

>  <UO Units>  (408) 
UO_0000065

>  <Potential Duplicate>  (408) 
False

>  <Class>  (408) 
0

$$$$

     RDKit          2D

 30 32  0  0  0  0  0  0  0  0999 V2000
  -11.9561  -15.7773    0.0000 F   0  0  0  0  0  0  0  0  0  0  0  0
  -11.6442  -14.3101    0.0000 C   0  0  0  0  0  0  0  0  0  0  0  0
  -13.1115  -13.9982    0.0000 F   0  0  0  0  0  0  0  0  0  0  0  0
  -10.1770  -14.6220    0.0000 F   0  0  0  0  0  0  0  0  0  0  0  0
  -11.3324  -12.8429    0.0000 C   0  0  0  0  0  0  0  0  0  0  0  0
  -12.4471  -11.8392    0.0000 C   0  0  0  0  0  0  0  0  0  0  0  0
  -12.1352  -10.3720    0.0000 C   0  0  0  0  0  0  0  0  0  0  0  0
  -10.7086   -9.9084    0.0000 C   0  0  0  0  0  0  0  0  0  0  0  0
  -10.3968   -8.4412    0.0000 Cl  0  0  0  0  0  0  0  0  0  0  0  0
   -9.5939  -10.9121    0.0000 C   0  0  0  0  0  0  0  0  0  0  0  0
   -8.1673  -10.4486    0.0000 N   0  0  0  0  0  0  0  0  0  0  0  0
   -7.8555   -8.9814    0.0000 C   0  0  0  0  0  0  0  0  0  0  0  0
   -8.9702   -7.9777    0.0000 O   0  0  0  0  0  0  0  0  0  0  0  0
   -6.4289   -8.5179    0.0000 C   0  0  0  0  0  0  0  0  0  0  0  0
   -6.1170   -7.0506    0.0000 C   0  0  0  0  0  0  0  0  0  0  0  0
   -4.6904   -6.5871    0.0000 C   0  0  0  0  0  0  0  0  0  0  0  0
   -3.5757   -7.5908    0.0000 O   0  0  0  0  0  0  0  0  0  0  0  0
   -4.3786   -5.1199    0.0000 N   0  0  0  0  0  0  0  0  0  0  0  0
   -2.9520   -4.6564    0.0000 N   0  0  0  0  0  0  0  0  0  0  0  0
   -2.6401   -3.1891    0.0000 C   0  0  0  0  0  0  0  0  0  0  0  0
   -1.2135   -2.7256    0.0000 C   0  0  0  0  0  0  0  0  0  0  0  0
    0.0000   -3.6073    0.0000 C   0  0  0  0  0  0  0  0  0  0  0  0
    1.2135   -2.7256    0.0000 N   0  0  0  0  0  0  0  0  0  0  0  0
    0.7500   -1.2990    0.0000 C   0  0  0  0  0  0  0  0  0  0  0  0
    1.5000    0.0000    0.0000 C   0  0  0  0  0  0  0  0  0  0  0  0
    0.7500    1.2990    0.0000 C   0  0  0  0  0  0  0  0  0  0  0  0
   -0.7500    1.2990    0.0000 C   0  0  0  0  0  0  0  0  0  0  0  0
   -1.5000    0.0000    0.0000 C   0  0  0  0  0  0  0  0  0  0  0  0
   -0.7500   -1.2990    0.0000 C   0  0  0  0  0  0  0  0  0  0  0  0
   -9.9058  -12.3794    0.0000 C   0  0  0  0  0  0  0  0  0  0  0  0
  1  2  1  0
  2  3  1  0
  2  4  1  0
  2  5  1  0
  5  6  2  0
  6  7  1  0
  7  8  2  0
  8  9  1  0
  8 10  1  0
 10 11  1  0
 11 12  1  0
 12 13  2  0
 12 14  1  0
 14 15  1  0
 15 16  1  0
 16 17  2  0
 16 18  1  0
 18 19  1  0
 19 20  2  3
 20 21  1  0
 21 22  2  0
 22 23  1  0
 23 24  1  0
 24 25  2  0
 25 26  1  0
 26 27  2  0
 27 28  1  0
 28 29  2  0
 10 30  2  0
 30  5  1  0
 29 21  1  0
 29 24  1  0
M  END
>  <Molecule>  (409) 
CHEMBL1994308

>  <Standard Type>  (409) 
Ki

>  <Standard Relation>  (409) 
>

>  <Standard Value>  (409) 
5011.87

>  <Standard Units>  (409) 
nM

>  <pChEMBL Value>  (409) 
nan

>  <Comment>  (409) 
inactive

>  <Compound Key>  (409) 
SID103905118

>  <Assay>  (409) 
CHEMBL1963742

>  <Assay Description>  (409) 
PUBCHEM_BIOASSAY: Navigating the Kinome. (Class of assay: other) Panel member name: JAK3

>  <BAO Format>  (409) 
assay format

>  <Target>  (409) 
CHEMBL2148

>  <Target Pref. Name>  (409) 
Tyrosine-protein kinase JAK3

>  <Target Organism>  (409) 
Homo sapiens

>  <Target Type>  (409) 
SINGLE PROTEIN

>  <Document>  (409) 
CHEMBL1201862

>  <Source>  (409) 
PubChem BioAssays

>  <Max Phase>  (409) 
0

>  <#Ro5 Violations>  (409) 
0

>  <Molecular Weight>  (409) 
436.82

>  <Ligand Efficiency BEI>  (409) 
nan

>  <Ligand Efficiency LE>  (409) 
nan

>  <Ligand Efficiency LLE>  (409) 
nan

>  <Ligand Efficiency SEI>  (409) 
nan

>  <ALogP>  (409) 
4.71

>  <Assay Organism>  (409) 
nan

>  <Assay Tissue ChEMBL ID>  (409) 
nan

>  <Assay Tissue Name>  (409) 
nan

>  <Assay Cell Type>  (409) 
nan

>  <Assay Subcellular Fraction>  (409) 
nan

>  <Organism Tax ID>  (409) 
9606

>  <BAO Format ID>  (409) 
BAO_0000019

>  <Published Type>  (409) 
nan

>  <Published Relation>  (409) 
nan

>  <Published Value>  (409) 
nan

>  <Published Units>  (409) 
nan

>  <Canonical Smiles>  (409) 
FC(F)(F)c1ccc(Cl)c(NC(=O)CCC(=O)NN=Cc2c[nH]c3ccccc23)c1

>  <Data Validity Comment>  (409) 
nan

>  <Document Journal>  (409) 
nan

>  <Document Year>  (409) 
nan

>  <SRC ID>  (409) 
7

>  <UO Units>  (409) 
UO_0000065

>  <Potential Duplicate>  (409) 
False

>  <Class>  (409) 
0

$$$$

     RDKit          2D

 28 31  0  0  0  0  0  0  0  0999 V2000
   -6.1170   -7.0506    0.0000 C   0  0  0  0  0  0  0  0  0  0  0  0
   -4.6904   -6.5871    0.0000 N   0  0  0  0  0  0  0  0  0  0  0  0
   -3.5757   -7.5908    0.0000 C   0  0  0  0  0  0  0  0  0  0  0  0
   -4.3786   -5.1199    0.0000 C   0  0  0  0  0  0  0  0  0  0  0  0
   -2.9520   -4.6564    0.0000 C   0  0  0  0  0  0  0  0  0  0  0  0
   -1.8373   -5.6601    0.0000 O   0  0  0  0  0  0  0  0  0  0  0  0
   -2.6401   -3.1891    0.0000 N   0  0  0  0  0  0  0  0  0  0  0  0
   -1.2135   -2.7256    0.0000 C   0  0  0  0  0  0  0  0  0  0  0  0
   -0.0000   -3.6073    0.0000 N   0  0  0  0  0  0  0  0  0  0  0  0
    1.2135   -2.7256    0.0000 N   0  0  0  0  0  0  0  0  0  0  0  0
    0.7500   -1.2990    0.0000 C   0  0  0  0  0  0  0  0  0  0  0  0
    1.5000    0.0000    0.0000 C   0  0  0  0  0  0  0  0  0  0  0  0
    0.7500    1.2990    0.0000 C   0  0  0  0  0  0  0  0  0  0  0  0
   -0.7500    1.2990    0.0000 C   0  0  0  0  0  0  0  0  0  0  0  0
   -1.5000    0.0000    0.0000 C   0  0  0  0  0  0  0  0  0  0  0  0
   -0.7500   -1.2990    0.0000 C   0  0  0  0  0  0  0  0  0  0  0  0
   -1.5000    2.5981    0.0000 C   0  0  0  0  0  0  0  0  0  0  0  0
   -2.9918    2.7549    0.0000 C   0  0  0  0  0  0  0  0  0  0  0  0
   -3.3037    4.2221    0.0000 N   0  0  0  0  0  0  0  0  0  0  0  0
   -4.6740    4.8322    0.0000 C   0  0  0  0  0  0  0  0  0  0  0  0
   -4.8308    6.3240    0.0000 C   0  0  0  0  0  0  0  0  0  0  0  0
   -3.6172    7.2057    0.0000 C   0  0  0  0  0  0  0  0  0  0  0  0
   -3.7740    8.6974    0.0000 C   0  0  0  0  0  0  0  0  0  0  0  0
   -5.1443    9.3075    0.0000 C   0  0  0  0  0  0  0  0  0  0  0  0
   -6.3579    8.4259    0.0000 C   0  0  0  0  0  0  0  0  0  0  0  0
   -6.2011    6.9341    0.0000 C   0  0  0  0  0  0  0  0  0  0  0  0
   -2.0046    4.9721    0.0000 N   0  0  0  0  0  0  0  0  0  0  0  0
   -0.8899    3.9684    0.0000 N   0  0  0  0  0  0  0  0  0  0  0  0
  1  2  1  0
  2  3  1  0
  2  4  1  0
  4  5  1  0
  5  6  2  0
  5  7  1  0
  7  8  1  0
  8  9  2  0
  9 10  1  0
 10 11  1  0
 11 12  2  0
 12 13  1  0
 13 14  2  0
 14 15  1  0
 15 16  2  0
 14 17  1  0
 17 18  2  0
 18 19  1  0
 19 20  1  0
 20 21  1  0
 21 22  2  0
 22 23  1  0
 23 24  2  0
 24 25  1  0
 25 26  2  0
 19 27  1  0
 27 28  2  0
 16  8  1  0
 16 11  1  0
 28 17  1  0
 26 21  1  0
M  END
>  <Molecule>  (410) 
CHEMBL1965631

>  <Standard Type>  (410) 
Ki

>  <Standard Relation>  (410) 
>

>  <Standard Value>  (410) 
1584.89

>  <Standard Units>  (410) 
nM

>  <pChEMBL Value>  (410) 
nan

>  <Comment>  (410) 
inactive

>  <Compound Key>  (410) 
SID103904529

>  <Assay>  (410) 
CHEMBL1963742

>  <Assay Description>  (410) 
PUBCHEM_BIOASSAY: Navigating the Kinome. (Class of assay: other) Panel member name: JAK3

>  <BAO Format>  (410) 
assay format

>  <Target>  (410) 
CHEMBL2148

>  <Target Pref. Name>  (410) 
Tyrosine-protein kinase JAK3

>  <Target Organism>  (410) 
Homo sapiens

>  <Target Type>  (410) 
SINGLE PROTEIN

>  <Document>  (410) 
CHEMBL1201862

>  <Source>  (410) 
PubChem BioAssays

>  <Max Phase>  (410) 
0

>  <#Ro5 Violations>  (410) 
0

>  <Molecular Weight>  (410) 
375.44

>  <Ligand Efficiency BEI>  (410) 
nan

>  <Ligand Efficiency LE>  (410) 
nan

>  <Ligand Efficiency LLE>  (410) 
nan

>  <Ligand Efficiency SEI>  (410) 
nan

>  <ALogP>  (410) 
2.37

>  <Assay Organism>  (410) 
nan

>  <Assay Tissue ChEMBL ID>  (410) 
nan

>  <Assay Tissue Name>  (410) 
nan

>  <Assay Cell Type>  (410) 
nan

>  <Assay Subcellular Fraction>  (410) 
nan

>  <Organism Tax ID>  (410) 
9606

>  <BAO Format ID>  (410) 
BAO_0000019

>  <Published Type>  (410) 
nan

>  <Published Relation>  (410) 
nan

>  <Published Value>  (410) 
nan

>  <Published Units>  (410) 
nan

>  <Canonical Smiles>  (410) 
CN(C)CC(=O)Nc1n[nH]c2ccc(cc12)c3cn(Cc4ccccc4)nn3

>  <Data Validity Comment>  (410) 
nan

>  <Document Journal>  (410) 
nan

>  <Document Year>  (410) 
nan

>  <SRC ID>  (410) 
7

>  <UO Units>  (410) 
UO_0000065

>  <Potential Duplicate>  (410) 
False

>  <Class>  (410) 
0

$$$$

     RDKit          2D

 21 22  0  0  0  0  0  0  0  0999 V2000
    3.0000    0.0000    0.0000 O   0  0  0  0  0  0  0  0  0  0  0  0
    1.5000    0.0000    0.0000 C   0  0  0  0  0  0  0  0  0  0  0  0
    0.7500   -1.2990    0.0000 C   0  0  0  0  0  0  0  0  0  0  0  0
    1.5000   -2.5981    0.0000 Br  0  0  0  0  0  0  0  0  0  0  0  0
   -0.7500   -1.2990    0.0000 C   0  0  0  0  0  0  0  0  0  0  0  0
   -1.5000    0.0000    0.0000 C   0  0  0  0  0  0  0  0  0  0  0  0
   -3.0000    0.0000    0.0000 C   0  0  0  0  0  0  0  0  0  0  0  0
   -3.7500    1.2990    0.0000 N   0  0  0  0  0  0  0  0  0  0  0  0
   -5.2500    1.2990    0.0000 N   0  0  0  0  0  0  0  0  0  0  0  0
   -6.0000    2.5981    0.0000 C   0  0  0  0  0  0  0  0  0  0  0  0
   -5.2500    3.8971    0.0000 O   0  0  0  0  0  0  0  0  0  0  0  0
   -7.5000    2.5981    0.0000 N   0  0  0  0  0  0  0  0  0  0  0  0
   -8.2500    3.8971    0.0000 C   0  0  0  0  0  0  0  0  0  0  0  0
   -7.5000    5.1962    0.0000 C   0  0  0  0  0  0  0  0  0  0  0  0
   -8.2500    6.4952    0.0000 C   0  0  0  0  0  0  0  0  0  0  0  0
   -9.7500    6.4952    0.0000 C   0  0  0  0  0  0  0  0  0  0  0  0
  -10.5000    5.1962    0.0000 C   0  0  0  0  0  0  0  0  0  0  0  0
   -9.7500    3.8971    0.0000 C   0  0  0  0  0  0  0  0  0  0  0  0
   -0.7500    1.2990    0.0000 C   0  0  0  0  0  0  0  0  0  0  0  0
    0.7500    1.2990    0.0000 C   0  0  0  0  0  0  0  0  0  0  0  0
    1.5000    2.5981    0.0000 Br  0  0  0  0  0  0  0  0  0  0  0  0
  1  2  1  0
  2  3  2  0
  3  4  1  0
  3  5  1  0
  5  6  2  0
  6  7  1  0
  7  8  2  3
  8  9  1  0
  9 10  1  0
 10 11  2  0
 10 12  1  0
 12 13  1  0
 13 14  2  0
 14 15  1  0
 15 16  2  0
 16 17  1  0
 17 18  2  0
  6 19  1  0
 19 20  2  0
 20 21  1  0
 20  2  1  0
 18 13  1  0
M  END
>  <Molecule>  (411) 
CHEMBL1983575

>  <Standard Type>  (411) 
Ki

>  <Standard Relation>  (411) 
=

>  <Standard Value>  (411) 
794.33

>  <Standard Units>  (411) 
nM

>  <pChEMBL Value>  (411) 
6.1

>  <Comment>  (411) 
active

>  <Compound Key>  (411) 
SID103904441

>  <Assay>  (411) 
CHEMBL1963742

>  <Assay Description>  (411) 
PUBCHEM_BIOASSAY: Navigating the Kinome. (Class of assay: other) Panel member name: JAK3

>  <BAO Format>  (411) 
assay format

>  <Target>  (411) 
CHEMBL2148

>  <Target Pref. Name>  (411) 
Tyrosine-protein kinase JAK3

>  <Target Organism>  (411) 
Homo sapiens

>  <Target Type>  (411) 
SINGLE PROTEIN

>  <Document>  (411) 
CHEMBL1201862

>  <Source>  (411) 
PubChem BioAssays

>  <Max Phase>  (411) 
0

>  <#Ro5 Violations>  (411) 
0

>  <Molecular Weight>  (411) 
413.07

>  <Ligand Efficiency BEI>  (411) 
nan

>  <Ligand Efficiency LE>  (411) 
nan

>  <Ligand Efficiency LLE>  (411) 
nan

>  <Ligand Efficiency SEI>  (411) 
nan

>  <ALogP>  (411) 
4.07

>  <Assay Organism>  (411) 
nan

>  <Assay Tissue ChEMBL ID>  (411) 
nan

>  <Assay Tissue Name>  (411) 
nan

>  <Assay Cell Type>  (411) 
nan

>  <Assay Subcellular Fraction>  (411) 
nan

>  <Organism Tax ID>  (411) 
9606

>  <BAO Format ID>  (411) 
BAO_0000019

>  <Published Type>  (411) 
nan

>  <Published Relation>  (411) 
nan

>  <Published Value>  (411) 
nan

>  <Published Units>  (411) 
nan

>  <Canonical Smiles>  (411) 
Oc1c(Br)cc(C=NNC(=O)Nc2ccccc2)cc1Br

>  <Data Validity Comment>  (411) 
nan

>  <Document Journal>  (411) 
nan

>  <Document Year>  (411) 
nan

>  <SRC ID>  (411) 
7

>  <UO Units>  (411) 
UO_0000065

>  <Potential Duplicate>  (411) 
False

>  <Class>  (411) 
1

$$$$

     RDKit          2D

 29 32  0  0  0  0  0  0  0  0999 V2000
    2.2655   10.0169    0.0000 C   0  0  0  0  0  0  0  0  0  0  0  0
    0.8389    9.5533    0.0000 O   0  0  0  0  0  0  0  0  0  0  0  0
    0.5271    8.0861    0.0000 C   0  0  0  0  0  0  0  0  0  0  0  0
    1.6418    7.0824    0.0000 C   0  0  0  0  0  0  0  0  0  0  0  0
    1.3299    5.6152    0.0000 C   0  0  0  0  0  0  0  0  0  0  0  0
   -0.0967    5.1517    0.0000 C   0  0  0  0  0  0  0  0  0  0  0  0
   -1.2114    6.1554    0.0000 C   0  0  0  0  0  0  0  0  0  0  0  0
   -0.8995    7.6226    0.0000 C   0  0  0  0  0  0  0  0  0  0  0  0
   -2.0143    8.6263    0.0000 O   0  0  0  0  0  0  0  0  0  0  0  0
   -3.4408    8.1628    0.0000 C   0  0  0  0  0  0  0  0  0  0  0  0
   -0.4086    3.6844    0.0000 C   0  0  0  0  0  0  0  0  0  0  0  0
    0.7062    2.6807    0.0000 C   0  0  0  0  0  0  0  0  0  0  0  0
    0.3943    1.2135    0.0000 C   0  0  0  0  0  0  0  0  0  0  0  0
    1.2760    0.0000    0.0000 N   0  0  0  0  0  0  0  0  0  0  0  0
    0.3943   -1.2135    0.0000 C   0  0  0  0  0  0  0  0  0  0  0  0
   -1.0323   -0.7500    0.0000 C   0  0  0  0  0  0  0  0  0  0  0  0
   -1.0323    0.7500    0.0000 N   0  0  0  0  0  0  0  0  0  0  0  0
   -2.1470    1.7537    0.0000 C   0  0  0  0  0  0  0  0  0  0  0  0
   -3.5736    1.2902    0.0000 N   0  0  0  0  0  0  0  0  0  0  0  0
   -4.6883    2.2939    0.0000 C   0  0  0  0  0  0  0  0  0  0  0  0
   -4.3764    3.7611    0.0000 N   0  0  0  0  0  0  0  0  0  0  0  0
   -5.4912    4.7648    0.0000 C   0  0  0  0  0  0  0  0  0  0  0  0
   -6.9177    4.3013    0.0000 C   0  0  0  0  0  0  0  0  0  0  0  0
   -7.2296    2.8340    0.0000 C   0  0  0  0  0  0  0  0  0  0  0  0
   -6.1149    1.8303    0.0000 C   0  0  0  0  0  0  0  0  0  0  0  0
   -6.4268    0.3631    0.0000 C   0  0  0  0  0  0  0  0  0  0  0  0
   -5.3120   -0.6406    0.0000 O   0  0  0  0  0  0  0  0  0  0  0  0
   -7.8533   -0.1004    0.0000 N   0  0  0  0  0  0  0  0  0  0  0  0
   -1.8351    3.2209    0.0000 N   0  0  0  0  0  0  0  0  0  0  0  0
  1  2  1  0
  2  3  1  0
  3  4  2  0
  4  5  1  0
  5  6  2  0
  6  7  1  0
  7  8  2  0
  8  9  1  0
  9 10  1  0
  6 11  1  0
 11 12  2  0
 12 13  1  0
 13 14  2  0
 14 15  1  0
 15 16  2  0
 16 17  1  0
 17 18  1  0
 18 19  1  0
 19 20  1  0
 20 21  2  0
 21 22  1  0
 22 23  2  0
 23 24  1  0
 24 25  2  0
 25 26  1  0
 26 27  2  0
 26 28  1  0
 18 29  2  0
  8  3  1  0
 29 11  1  0
 17 13  1  0
 25 20  1  0
M  END
>  <Molecule>  (412) 
CHEMBL1190711

>  <Standard Type>  (412) 
Ki

>  <Standard Relation>  (412) 
>

>  <Standard Value>  (412) 
1584.89

>  <Standard Units>  (412) 
nM

>  <pChEMBL Value>  (412) 
nan

>  <Comment>  (412) 
inactive

>  <Compound Key>  (412) 
SID103905231

>  <Assay>  (412) 
CHEMBL1963742

>  <Assay Description>  (412) 
PUBCHEM_BIOASSAY: Navigating the Kinome. (Class of assay: other) Panel member name: JAK3

>  <BAO Format>  (412) 
assay format

>  <Target>  (412) 
CHEMBL2148

>  <Target Pref. Name>  (412) 
Tyrosine-protein kinase JAK3

>  <Target Organism>  (412) 
Homo sapiens

>  <Target Type>  (412) 
SINGLE PROTEIN

>  <Document>  (412) 
CHEMBL1201862

>  <Source>  (412) 
PubChem BioAssays

>  <Max Phase>  (412) 
0

>  <#Ro5 Violations>  (412) 
0

>  <Molecular Weight>  (412) 
390.4

>  <Ligand Efficiency BEI>  (412) 
nan

>  <Ligand Efficiency LE>  (412) 
nan

>  <Ligand Efficiency LLE>  (412) 
nan

>  <Ligand Efficiency SEI>  (412) 
nan

>  <ALogP>  (412) 
2.65

>  <Assay Organism>  (412) 
nan

>  <Assay Tissue ChEMBL ID>  (412) 
nan

>  <Assay Tissue Name>  (412) 
nan

>  <Assay Cell Type>  (412) 
nan

>  <Assay Subcellular Fraction>  (412) 
nan

>  <Organism Tax ID>  (412) 
9606

>  <BAO Format ID>  (412) 
BAO_0000019

>  <Published Type>  (412) 
nan

>  <Published Relation>  (412) 
nan

>  <Published Value>  (412) 
nan

>  <Published Units>  (412) 
nan

>  <Canonical Smiles>  (412) 
COc1ccc(cc1OC)c2cc3nccn3c(Nc4ncccc4C(=O)N)n2

>  <Data Validity Comment>  (412) 
nan

>  <Document Journal>  (412) 
nan

>  <Document Year>  (412) 
nan

>  <SRC ID>  (412) 
7

>  <UO Units>  (412) 
UO_0000065

>  <Potential Duplicate>  (412) 
False

>  <Class>  (412) 
0

$$$$

     RDKit          2D

 27 30  0  0  0  0  0  0  0  0999 V2000
   -3.8876   -9.0580    0.0000 F   0  0  0  0  0  0  0  0  0  0  0  0
   -5.3142   -9.5216    0.0000 C   0  0  0  0  0  0  0  0  0  0  0  0
   -5.6260  -10.9888    0.0000 C   0  0  0  0  0  0  0  0  0  0  0  0
   -7.0526  -11.4523    0.0000 C   0  0  0  0  0  0  0  0  0  0  0  0
   -8.1673  -10.4486    0.0000 C   0  0  0  0  0  0  0  0  0  0  0  0
   -7.8555   -8.9814    0.0000 C   0  0  0  0  0  0  0  0  0  0  0  0
   -8.9702   -7.9777    0.0000 F   0  0  0  0  0  0  0  0  0  0  0  0
   -6.4289   -8.5179    0.0000 C   0  0  0  0  0  0  0  0  0  0  0  0
   -6.1170   -7.0506    0.0000 C   0  0  0  0  0  0  0  0  0  0  0  0
   -7.2317   -6.0469    0.0000 O   0  0  0  0  0  0  0  0  0  0  0  0
   -4.6904   -6.5871    0.0000 N   0  0  0  0  0  0  0  0  0  0  0  0
   -4.3786   -5.1199    0.0000 C   0  0  0  0  0  0  0  0  0  0  0  0
   -2.9520   -4.6564    0.0000 C   0  0  0  0  0  0  0  0  0  0  0  0
   -2.6401   -3.1891    0.0000 C   0  0  0  0  0  0  0  0  0  0  0  0
   -3.7548   -2.1855    0.0000 C   0  0  0  0  0  0  0  0  0  0  0  0
   -5.1814   -2.6490    0.0000 C   0  0  0  0  0  0  0  0  0  0  0  0
   -6.2961   -1.6453    0.0000 Cl  0  0  0  0  0  0  0  0  0  0  0  0
   -5.4933   -4.1162    0.0000 N   0  0  0  0  0  0  0  0  0  0  0  0
   -1.2135   -2.7256    0.0000 C   0  0  0  0  0  0  0  0  0  0  0  0
    0.0000   -3.6073    0.0000 C   0  0  0  0  0  0  0  0  0  0  0  0
    1.2135   -2.7256    0.0000 N   0  0  0  0  0  0  0  0  0  0  0  0
    0.7500   -1.2990    0.0000 C   0  0  0  0  0  0  0  0  0  0  0  0
    1.5000    0.0000    0.0000 N   0  0  0  0  0  0  0  0  0  0  0  0
    0.7500    1.2990    0.0000 C   0  0  0  0  0  0  0  0  0  0  0  0
   -0.7500    1.2990    0.0000 C   0  0  0  0  0  0  0  0  0  0  0  0
   -1.5000    0.0000    0.0000 C   0  0  0  0  0  0  0  0  0  0  0  0
   -0.7500   -1.2990    0.0000 C   0  0  0  0  0  0  0  0  0  0  0  0
  1  2  1  0
  2  3  2  0
  3  4  1  0
  4  5  2  0
  5  6  1  0
  6  7  1  0
  6  8  2  0
  8  9  1  0
  9 10  2  0
  9 11  1  0
 11 12  1  0
 12 13  2  0
 13 14  1  0
 14 15  2  0
 15 16  1  0
 16 17  1  0
 16 18  2  0
 14 19  1  0
 19 20  2  0
 20 21  1  0
 21 22  1  0
 22 23  2  0
 23 24  1  0
 24 25  2  0
 25 26  1  0
 26 27  2  0
  8  2  1  0
 18 12  1  0
 27 19  1  0
 27 22  1  0
M  END
>  <Molecule>  (413) 
CHEMBL1991410

>  <Standard Type>  (413) 
Ki

>  <Standard Relation>  (413) 
>

>  <Standard Value>  (413) 
5011.87

>  <Standard Units>  (413) 
nM

>  <pChEMBL Value>  (413) 
nan

>  <Comment>  (413) 
inactive

>  <Compound Key>  (413) 
SID103904253

>  <Assay>  (413) 
CHEMBL1963742

>  <Assay Description>  (413) 
PUBCHEM_BIOASSAY: Navigating the Kinome. (Class of assay: other) Panel member name: JAK3

>  <BAO Format>  (413) 
assay format

>  <Target>  (413) 
CHEMBL2148

>  <Target Pref. Name>  (413) 
Tyrosine-protein kinase JAK3

>  <Target Organism>  (413) 
Homo sapiens

>  <Target Type>  (413) 
SINGLE PROTEIN

>  <Document>  (413) 
CHEMBL1201862

>  <Source>  (413) 
PubChem BioAssays

>  <Max Phase>  (413) 
0

>  <#Ro5 Violations>  (413) 
0

>  <Molecular Weight>  (413) 
384.77

>  <Ligand Efficiency BEI>  (413) 
nan

>  <Ligand Efficiency LE>  (413) 
nan

>  <Ligand Efficiency LLE>  (413) 
nan

>  <Ligand Efficiency SEI>  (413) 
nan

>  <ALogP>  (413) 
4.81

>  <Assay Organism>  (413) 
nan

>  <Assay Tissue ChEMBL ID>  (413) 
nan

>  <Assay Tissue Name>  (413) 
nan

>  <Assay Cell Type>  (413) 
nan

>  <Assay Subcellular Fraction>  (413) 
nan

>  <Organism Tax ID>  (413) 
9606

>  <BAO Format ID>  (413) 
BAO_0000019

>  <Published Type>  (413) 
nan

>  <Published Relation>  (413) 
nan

>  <Published Value>  (413) 
nan

>  <Published Units>  (413) 
nan

>  <Canonical Smiles>  (413) 
Fc1cccc(F)c1C(=O)Nc2cc(cc(Cl)n2)c3c[nH]c4ncccc34

>  <Data Validity Comment>  (413) 
nan

>  <Document Journal>  (413) 
nan

>  <Document Year>  (413) 
nan

>  <SRC ID>  (413) 
7

>  <UO Units>  (413) 
UO_0000065

>  <Potential Duplicate>  (413) 
False

>  <Class>  (413) 
0

$$$$

     RDKit          2D

 15 16  0  0  0  0  0  0  0  0999 V2000
    1.2990   -5.8573    0.0000 N   0  0  0  0  0  0  0  0  0  0  0  0
   -0.0000   -5.1073    0.0000 C   0  0  0  0  0  0  0  0  0  0  0  0
   -1.2990   -5.8573    0.0000 O   0  0  0  0  0  0  0  0  0  0  0  0
   -0.0000   -3.6073    0.0000 C   0  0  0  0  0  0  0  0  0  0  0  0
    1.2135   -2.7256    0.0000 S   0  0  0  0  0  0  0  0  0  0  0  0
    0.7500   -1.2990    0.0000 C   0  0  0  0  0  0  0  0  0  0  0  0
    1.5000    0.0000    0.0000 C   0  0  0  0  0  0  0  0  0  0  0  0
    3.0000    0.0000    0.0000 Br  0  0  0  0  0  0  0  0  0  0  0  0
    0.7500    1.2990    0.0000 C   0  0  0  0  0  0  0  0  0  0  0  0
   -0.7500    1.2990    0.0000 C   0  0  0  0  0  0  0  0  0  0  0  0
   -1.5000    0.0000    0.0000 C   0  0  0  0  0  0  0  0  0  0  0  0
   -3.0000    0.0000    0.0000 Cl  0  0  0  0  0  0  0  0  0  0  0  0
   -0.7500   -1.2990    0.0000 C   0  0  0  0  0  0  0  0  0  0  0  0
   -1.2135   -2.7256    0.0000 C   0  0  0  0  0  0  0  0  0  0  0  0
   -2.6401   -3.1891    0.0000 N   0  0  0  0  0  0  0  0  0  0  0  0
  1  2  1  0
  2  3  2  0
  2  4  1  0
  4  5  1  0
  5  6  1  0
  6  7  2  0
  7  8  1  0
  7  9  1  0
  9 10  2  0
 10 11  1  0
 11 12  1  0
 11 13  2  0
 13 14  1  0
 14 15  1  0
 14  4  2  0
 13  6  1  0
M  END
>  <Molecule>  (414) 
CHEMBL1998611

>  <Standard Type>  (414) 
Ki

>  <Standard Relation>  (414) 
>

>  <Standard Value>  (414) 
1584.89

>  <Standard Units>  (414) 
nM

>  <pChEMBL Value>  (414) 
nan

>  <Comment>  (414) 
inactive

>  <Compound Key>  (414) 
SID103905308

>  <Assay>  (414) 
CHEMBL1963742

>  <Assay Description>  (414) 
PUBCHEM_BIOASSAY: Navigating the Kinome. (Class of assay: other) Panel member name: JAK3

>  <BAO Format>  (414) 
assay format

>  <Target>  (414) 
CHEMBL2148

>  <Target Pref. Name>  (414) 
Tyrosine-protein kinase JAK3

>  <Target Organism>  (414) 
Homo sapiens

>  <Target Type>  (414) 
SINGLE PROTEIN

>  <Document>  (414) 
CHEMBL1201862

>  <Source>  (414) 
PubChem BioAssays

>  <Max Phase>  (414) 
0

>  <#Ro5 Violations>  (414) 
0

>  <Molecular Weight>  (414) 
305.58

>  <Ligand Efficiency BEI>  (414) 
nan

>  <Ligand Efficiency LE>  (414) 
nan

>  <Ligand Efficiency LLE>  (414) 
nan

>  <Ligand Efficiency SEI>  (414) 
nan

>  <ALogP>  (414) 
3.0

>  <Assay Organism>  (414) 
nan

>  <Assay Tissue ChEMBL ID>  (414) 
nan

>  <Assay Tissue Name>  (414) 
nan

>  <Assay Cell Type>  (414) 
nan

>  <Assay Subcellular Fraction>  (414) 
nan

>  <Organism Tax ID>  (414) 
9606

>  <BAO Format ID>  (414) 
BAO_0000019

>  <Published Type>  (414) 
nan

>  <Published Relation>  (414) 
nan

>  <Published Value>  (414) 
nan

>  <Published Units>  (414) 
nan

>  <Canonical Smiles>  (414) 
NC(=O)c1sc2c(Br)ccc(Cl)c2c1N

>  <Data Validity Comment>  (414) 
nan

>  <Document Journal>  (414) 
nan

>  <Document Year>  (414) 
nan

>  <SRC ID>  (414) 
7

>  <UO Units>  (414) 
UO_0000065

>  <Potential Duplicate>  (414) 
False

>  <Class>  (414) 
0

$$$$

     RDKit          2D

 23 25  0  0  0  0  0  0  0  0999 V2000
    3.0000    0.0000    0.0000 Cl  0  0  0  0  0  0  0  0  0  0  0  0
    1.5000    0.0000    0.0000 C   0  0  0  0  0  0  0  0  0  0  0  0
    0.7500   -1.2990    0.0000 C   0  0  0  0  0  0  0  0  0  0  0  0
   -0.7500   -1.2990    0.0000 C   0  0  0  0  0  0  0  0  0  0  0  0
   -1.5000    0.0000    0.0000 C   0  0  0  0  0  0  0  0  0  0  0  0
   -3.0000    0.0000    0.0000 C   0  0  0  0  0  0  0  0  0  0  0  0
   -3.7500    1.2990    0.0000 N   0  0  0  0  0  0  0  0  0  0  0  0
   -5.2500    1.2990    0.0000 C   0  0  0  0  0  0  0  0  0  0  0  0
   -6.3107    2.3597    0.0000 C   0  0  0  0  0  0  0  0  0  0  0  0
   -6.3107    3.8597    0.0000 N   0  0  0  0  0  0  0  0  0  0  0  0
   -5.0116    4.6097    0.0000 C   0  0  0  0  0  0  0  0  0  0  0  0
   -3.7126    3.8597    0.0000 C   0  0  0  0  0  0  0  0  0  0  0  0
   -2.4135    4.6097    0.0000 C   0  0  0  0  0  0  0  0  0  0  0  0
   -2.4135    6.1097    0.0000 N   0  0  0  0  0  0  0  0  0  0  0  0
   -3.7126    6.8597    0.0000 C   0  0  0  0  0  0  0  0  0  0  0  0
   -5.0116    6.1097    0.0000 C   0  0  0  0  0  0  0  0  0  0  0  0
   -7.3713    1.2990    0.0000 C   0  0  0  0  0  0  0  0  0  0  0  0
   -8.8713    1.2990    0.0000 O   0  0  0  0  0  0  0  0  0  0  0  0
   -6.3107    0.2384    0.0000 C   0  0  0  0  0  0  0  0  0  0  0  0
   -6.3107   -1.2616    0.0000 O   0  0  0  0  0  0  0  0  0  0  0  0
   -0.7500    1.2990    0.0000 C   0  0  0  0  0  0  0  0  0  0  0  0
    0.7500    1.2990    0.0000 C   0  0  0  0  0  0  0  0  0  0  0  0
    1.5000    2.5981    0.0000 Cl  0  0  0  0  0  0  0  0  0  0  0  0
  1  2  1  0
  2  3  2  0
  3  4  1  0
  4  5  2  0
  5  6  1  0
  6  7  1  0
  7  8  1  0
  8  9  2  0
  9 10  1  0
 10 11  1  0
 11 12  2  0
 12 13  1  0
 13 14  2  0
 14 15  1  0
 15 16  2  0
  9 17  1  0
 17 18  2  0
 17 19  1  0
 19 20  2  0
  5 21  1  0
 21 22  2  0
 22 23  1  0
 22  2  1  0
 19  8  1  0
 16 11  1  0
M  END
>  <Molecule>  (415) 
CHEMBL1975900

>  <Standard Type>  (415) 
Ki

>  <Standard Relation>  (415) 
>

>  <Standard Value>  (415) 
1584.89

>  <Standard Units>  (415) 
nM

>  <pChEMBL Value>  (415) 
nan

>  <Comment>  (415) 
inactive

>  <Compound Key>  (415) 
SID103905263

>  <Assay>  (415) 
CHEMBL1963742

>  <Assay Description>  (415) 
PUBCHEM_BIOASSAY: Navigating the Kinome. (Class of assay: other) Panel member name: JAK3

>  <BAO Format>  (415) 
assay format

>  <Target>  (415) 
CHEMBL2148

>  <Target Pref. Name>  (415) 
Tyrosine-protein kinase JAK3

>  <Target Organism>  (415) 
Homo sapiens

>  <Target Type>  (415) 
SINGLE PROTEIN

>  <Document>  (415) 
CHEMBL1201862

>  <Source>  (415) 
PubChem BioAssays

>  <Max Phase>  (415) 
0

>  <#Ro5 Violations>  (415) 
0

>  <Molecular Weight>  (415) 
348.19

>  <Ligand Efficiency BEI>  (415) 
nan

>  <Ligand Efficiency LE>  (415) 
nan

>  <Ligand Efficiency LLE>  (415) 
nan

>  <Ligand Efficiency SEI>  (415) 
nan

>  <ALogP>  (415) 
3.34

>  <Assay Organism>  (415) 
nan

>  <Assay Tissue ChEMBL ID>  (415) 
nan

>  <Assay Tissue Name>  (415) 
nan

>  <Assay Cell Type>  (415) 
nan

>  <Assay Subcellular Fraction>  (415) 
nan

>  <Organism Tax ID>  (415) 
9606

>  <BAO Format ID>  (415) 
BAO_0000019

>  <Published Type>  (415) 
nan

>  <Published Relation>  (415) 
nan

>  <Published Value>  (415) 
nan

>  <Published Units>  (415) 
nan

>  <Canonical Smiles>  (415) 
Clc1ccc(CNC2=C(Nc3ccncc3)C(=O)C2=O)cc1Cl

>  <Data Validity Comment>  (415) 
nan

>  <Document Journal>  (415) 
nan

>  <Document Year>  (415) 
nan

>  <SRC ID>  (415) 
7

>  <UO Units>  (415) 
UO_0000065

>  <Potential Duplicate>  (415) 
False

>  <Class>  (415) 
0

$$$$

     RDKit          2D

 19 21  0  0  0  0  0  0  0  0999 V2000
   -8.0346   -3.5760    0.0000 N   0  0  0  0  0  0  0  0  0  0  0  0
   -6.9199   -4.5797    0.0000 C   0  0  0  0  0  0  0  0  0  0  0  0
   -7.2317   -6.0469    0.0000 O   0  0  0  0  0  0  0  0  0  0  0  0
   -5.4933   -4.1162    0.0000 C   0  0  0  0  0  0  0  0  0  0  0  0
   -5.1814   -2.6490    0.0000 C   0  0  0  0  0  0  0  0  0  0  0  0
   -3.7548   -2.1855    0.0000 C   0  0  0  0  0  0  0  0  0  0  0  0
   -2.6401   -3.1891    0.0000 C   0  0  0  0  0  0  0  0  0  0  0  0
   -2.9520   -4.6564    0.0000 C   0  0  0  0  0  0  0  0  0  0  0  0
   -4.3786   -5.1199    0.0000 C   0  0  0  0  0  0  0  0  0  0  0  0
   -1.2135   -2.7256    0.0000 C   0  0  0  0  0  0  0  0  0  0  0  0
    0.0000   -3.6073    0.0000 C   0  0  0  0  0  0  0  0  0  0  0  0
    1.2135   -2.7256    0.0000 N   0  0  0  0  0  0  0  0  0  0  0  0
    0.7500   -1.2990    0.0000 C   0  0  0  0  0  0  0  0  0  0  0  0
    1.5000    0.0000    0.0000 N   0  0  0  0  0  0  0  0  0  0  0  0
    0.7500    1.2990    0.0000 C   0  0  0  0  0  0  0  0  0  0  0  0
   -0.7500    1.2990    0.0000 C   0  0  0  0  0  0  0  0  0  0  0  0
   -1.5000    0.0000    0.0000 C   0  0  0  0  0  0  0  0  0  0  0  0
   -3.0000    0.0000    0.0000 Cl  0  0  0  0  0  0  0  0  0  0  0  0
   -0.7500   -1.2990    0.0000 C   0  0  0  0  0  0  0  0  0  0  0  0
  1  2  1  0
  2  3  2  0
  2  4  1  0
  4  5  2  0
  5  6  1  0
  6  7  2  0
  7  8  1  0
  8  9  2  0
  7 10  1  0
 10 11  2  0
 11 12  1  0
 12 13  1  0
 13 14  2  0
 14 15  1  0
 15 16  2  0
 16 17  1  0
 17 18  1  0
 17 19  2  0
  9  4  1  0
 19 10  1  0
 19 13  1  0
M  END
>  <Molecule>  (416) 
CHEMBL1982711

>  <Standard Type>  (416) 
Ki

>  <Standard Relation>  (416) 
>

>  <Standard Value>  (416) 
3981.07

>  <Standard Units>  (416) 
nM

>  <pChEMBL Value>  (416) 
nan

>  <Comment>  (416) 
inactive

>  <Compound Key>  (416) 
SID103904191

>  <Assay>  (416) 
CHEMBL1963742

>  <Assay Description>  (416) 
PUBCHEM_BIOASSAY: Navigating the Kinome. (Class of assay: other) Panel member name: JAK3

>  <BAO Format>  (416) 
assay format

>  <Target>  (416) 
CHEMBL2148

>  <Target Pref. Name>  (416) 
Tyrosine-protein kinase JAK3

>  <Target Organism>  (416) 
Homo sapiens

>  <Target Type>  (416) 
SINGLE PROTEIN

>  <Document>  (416) 
CHEMBL1201862

>  <Source>  (416) 
PubChem BioAssays

>  <Max Phase>  (416) 
0

>  <#Ro5 Violations>  (416) 
0

>  <Molecular Weight>  (416) 
271.71

>  <Ligand Efficiency BEI>  (416) 
nan

>  <Ligand Efficiency LE>  (416) 
nan

>  <Ligand Efficiency LLE>  (416) 
nan

>  <Ligand Efficiency SEI>  (416) 
nan

>  <ALogP>  (416) 
2.98

>  <Assay Organism>  (416) 
nan

>  <Assay Tissue ChEMBL ID>  (416) 
nan

>  <Assay Tissue Name>  (416) 
nan

>  <Assay Cell Type>  (416) 
nan

>  <Assay Subcellular Fraction>  (416) 
nan

>  <Organism Tax ID>  (416) 
9606

>  <BAO Format ID>  (416) 
BAO_0000019

>  <Published Type>  (416) 
nan

>  <Published Relation>  (416) 
nan

>  <Published Value>  (416) 
nan

>  <Published Units>  (416) 
nan

>  <Canonical Smiles>  (416) 
NC(=O)c1ccc(cc1)c2c[nH]c3nccc(Cl)c23

>  <Data Validity Comment>  (416) 
nan

>  <Document Journal>  (416) 
nan

>  <Document Year>  (416) 
nan

>  <SRC ID>  (416) 
7

>  <UO Units>  (416) 
UO_0000065

>  <Potential Duplicate>  (416) 
False

>  <Class>  (416) 
0

$$$$

     RDKit          2D

 31 34  0  0  0  0  0  0  0  0999 V2000
    0.7500   -3.8971    0.0000 C   0  0  0  0  0  0  0  0  0  0  0  0
    1.5000   -2.5981    0.0000 N   0  0  0  0  0  0  0  0  0  0  0  0
    3.0000   -2.5981    0.0000 C   0  0  0  0  0  0  0  0  0  0  0  0
    3.7500   -1.2990    0.0000 O   0  0  0  0  0  0  0  0  0  0  0  0
    3.7500   -3.8971    0.0000 C   0  0  0  0  0  0  0  0  0  0  0  0
    3.0000   -5.1962    0.0000 C   0  0  0  0  0  0  0  0  0  0  0  0
    3.7500   -6.4952    0.0000 C   0  0  0  0  0  0  0  0  0  0  0  0
    5.2500   -6.4952    0.0000 C   0  0  0  0  0  0  0  0  0  0  0  0
    6.0000   -5.1962    0.0000 C   0  0  0  0  0  0  0  0  0  0  0  0
    5.2500   -3.8971    0.0000 C   0  0  0  0  0  0  0  0  0  0  0  0
    0.7500   -1.2990    0.0000 C   0  0  0  0  0  0  0  0  0  0  0  0
    1.5000    0.0000    0.0000 C   0  0  0  0  0  0  0  0  0  0  0  0
    0.7500    1.2990    0.0000 C   0  0  0  0  0  0  0  0  0  0  0  0
   -0.7500    1.2990    0.0000 C   0  0  0  0  0  0  0  0  0  0  0  0
   -1.5000    0.0000    0.0000 C   0  0  0  0  0  0  0  0  0  0  0  0
   -0.7500   -1.2990    0.0000 C   0  0  0  0  0  0  0  0  0  0  0  0
   -2.9672    0.3119    0.0000 N   0  0  0  0  0  0  0  0  0  0  0  0
   -3.1240    1.8037    0.0000 C   0  0  0  0  0  0  0  0  0  0  0  0
   -4.4231    2.5537    0.0000 N   0  0  0  0  0  0  0  0  0  0  0  0
   -4.4231    4.0537    0.0000 C   0  0  0  0  0  0  0  0  0  0  0  0
   -3.1240    4.8037    0.0000 O   0  0  0  0  0  0  0  0  0  0  0  0
   -5.7221    4.8037    0.0000 C   0  0  0  0  0  0  0  0  0  0  0  0
   -5.7221    6.3037    0.0000 C   0  0  0  0  0  0  0  0  0  0  0  0
   -7.0211    7.0537    0.0000 C   0  0  0  0  0  0  0  0  0  0  0  0
   -8.3202    6.3037    0.0000 C   0  0  0  0  0  0  0  0  0  0  0  0
   -8.3202    4.8037    0.0000 C   0  0  0  0  0  0  0  0  0  0  0  0
   -7.0211    4.0537    0.0000 C   0  0  0  0  0  0  0  0  0  0  0  0
   -9.6192    7.0537    0.0000 C   0  0  0  0  0  0  0  0  0  0  0  0
  -10.9182    7.8037    0.0000 N   0  0  0  0  0  0  0  0  0  0  0  0
   -1.7537    2.4138    0.0000 N   0  0  0  0  0  0  0  0  0  0  0  0
   -1.4418    3.8810    0.0000 C   0  0  0  0  0  0  0  0  0  0  0  0
  1  2  1  0
  2  3  1  0
  3  4  2  0
  3  5  1  0
  5  6  1  0
  6  7  1  0
  7  8  1  0
  8  9  1  0
  9 10  1  0
  2 11  1  0
 11 12  2  0
 12 13  1  0
 13 14  2  0
 14 15  1  0
 15 16  2  0
 15 17  1  0
 17 18  2  0
 18 19  1  0
 19 20  1  0
 20 21  2  0
 20 22  1  0
 22 23  2  0
 23 24  1  0
 24 25  2  0
 25 26  1  0
 26 27  2  0
 25 28  1  0
 28 29  3  0
 18 30  1  0
 30 31  1  0
 10  5  1  0
 16 11  1  0
 30 14  1  0
 27 22  1  0
M  END
>  <Molecule>  (417) 
CHEMBL519697

>  <Standard Type>  (417) 
Ki

>  <Standard Relation>  (417) 
>

>  <Standard Value>  (417) 
1584.89

>  <Standard Units>  (417) 
nM

>  <pChEMBL Value>  (417) 
nan

>  <Comment>  (417) 
inactive

>  <Compound Key>  (417) 
SID103905077

>  <Assay>  (417) 
CHEMBL1963742

>  <Assay Description>  (417) 
PUBCHEM_BIOASSAY: Navigating the Kinome. (Class of assay: other) Panel member name: JAK3

>  <BAO Format>  (417) 
assay format

>  <Target>  (417) 
CHEMBL2148

>  <Target Pref. Name>  (417) 
Tyrosine-protein kinase JAK3

>  <Target Organism>  (417) 
Homo sapiens

>  <Target Type>  (417) 
SINGLE PROTEIN

>  <Document>  (417) 
CHEMBL1201862

>  <Source>  (417) 
PubChem BioAssays

>  <Max Phase>  (417) 
0

>  <#Ro5 Violations>  (417) 
0

>  <Molecular Weight>  (417) 
415.5

>  <Ligand Efficiency BEI>  (417) 
nan

>  <Ligand Efficiency LE>  (417) 
nan

>  <Ligand Efficiency LLE>  (417) 
nan

>  <Ligand Efficiency SEI>  (417) 
nan

>  <ALogP>  (417) 
4.24

>  <Assay Organism>  (417) 
nan

>  <Assay Tissue ChEMBL ID>  (417) 
nan

>  <Assay Tissue Name>  (417) 
nan

>  <Assay Cell Type>  (417) 
nan

>  <Assay Subcellular Fraction>  (417) 
nan

>  <Organism Tax ID>  (417) 
9606

>  <BAO Format ID>  (417) 
BAO_0000019

>  <Published Type>  (417) 
nan

>  <Published Relation>  (417) 
nan

>  <Published Value>  (417) 
nan

>  <Published Units>  (417) 
nan

>  <Canonical Smiles>  (417) 
CN(C(=O)C1CCCCC1)c2ccc3c(c2)nc(NC(=O)c4ccc(cc4)C#N)n3C

>  <Data Validity Comment>  (417) 
nan

>  <Document Journal>  (417) 
nan

>  <Document Year>  (417) 
nan

>  <SRC ID>  (417) 
7

>  <UO Units>  (417) 
UO_0000065

>  <Potential Duplicate>  (417) 
False

>  <Class>  (417) 
0

$$$$

     RDKit          2D

 29 30  0  0  0  0  0  0  0  0999 V2000
    6.0000   -2.5981    0.0000 C   0  0  0  0  0  0  0  0  0  0  0  0
    5.2500   -1.2990    0.0000 O   0  0  0  0  0  0  0  0  0  0  0  0
    3.7500   -1.2990    0.0000 C   0  0  0  0  0  0  0  0  0  0  0  0
    3.0000   -0.0000    0.0000 O   0  0  0  0  0  0  0  0  0  0  0  0
    1.5000    0.0000    0.0000 C   0  0  0  0  0  0  0  0  0  0  0  0
    0.7500   -1.2990    0.0000 C   0  0  0  0  0  0  0  0  0  0  0  0
   -0.7500   -1.2990    0.0000 C   0  0  0  0  0  0  0  0  0  0  0  0
   -1.5000    0.0000    0.0000 C   0  0  0  0  0  0  0  0  0  0  0  0
   -0.7500    1.2990    0.0000 C   0  0  0  0  0  0  0  0  0  0  0  0
   -1.5000    2.5981    0.0000 O   0  0  0  0  0  0  0  0  0  0  0  0
   -3.0000    2.5981    0.0000 C   0  0  0  0  0  0  0  0  0  0  0  0
   -3.7500    3.8971    0.0000 O   0  0  0  0  0  0  0  0  0  0  0  0
   -5.2500    3.8971    0.0000 C   0  0  0  0  0  0  0  0  0  0  0  0
    0.7500    1.2990    0.0000 C   0  0  0  0  0  0  0  0  0  0  0  0
    1.5000    2.5981    0.0000 C   0  0  0  0  0  0  0  0  0  0  0  0
    3.0000    2.5981    0.0000 C   0  0  0  0  0  0  0  0  0  0  0  0
    3.7500    3.8971    0.0000 C   0  0  0  0  0  0  0  0  0  0  0  0
    3.0000    5.1962    0.0000 C   0  0  0  0  0  0  0  0  0  0  0  0
    3.7500    6.4952    0.0000 N   0  0  0  0  0  0  0  0  0  0  0  0
    5.2500    6.4952    0.0000 S   0  0  0  0  0  0  0  0  0  0  0  0
    5.2500    4.9952    0.0000 O   0  0  0  0  0  0  0  0  0  0  0  0
    5.2500    7.9952    0.0000 O   0  0  0  0  0  0  0  0  0  0  0  0
    6.7500    6.4952    0.0000 C   0  0  0  0  0  0  0  0  0  0  0  0
    1.5000    5.1962    0.0000 C   0  0  0  0  0  0  0  0  0  0  0  0
    0.7500    3.8971    0.0000 C   0  0  0  0  0  0  0  0  0  0  0  0
   -0.7500    3.8971    0.0000 C   0  0  0  0  0  0  0  0  0  0  0  0
   -1.3038    3.3237    0.0000 O   0  0  0  0  0  0  0  0  0  0  0  0
   -1.5000    5.1962    0.0000 O   0  0  0  0  0  0  0  0  0  0  0  0
   -3.0000    5.1962    0.0000 C   0  0  0  0  0  0  0  0  0  0  0  0
  1  2  1  0
  2  3  1  0
  3  4  1  0
  4  5  1  0
  5  6  2  0
  6  7  1  0
  7  8  2  0
  8  9  1  0
  9 10  1  0
 10 11  1  0
 11 12  1  0
 12 13  1  0
  9 14  2  0
 14 15  1  0
 15 16  2  0
 16 17  1  0
 17 18  2  0
 18 19  1  0
 19 20  1  0
 20 21  2  0
 20 22  2  0
 20 23  1  0
 18 24  1  0
 24 25  2  0
 25 26  1  0
 26 27  2  0
 26 28  1  0
 28 29  1  0
 14  5  1  0
 25 15  1  0
M  END
>  <Molecule>  (418) 
CHEMBL2004025

>  <Standard Type>  (418) 
Ki

>  <Standard Relation>  (418) 
>

>  <Standard Value>  (418) 
5011.87

>  <Standard Units>  (418) 
nM

>  <pChEMBL Value>  (418) 
nan

>  <Comment>  (418) 
inactive

>  <Compound Key>  (418) 
SID103905521

>  <Assay>  (418) 
CHEMBL1963742

>  <Assay Description>  (418) 
PUBCHEM_BIOASSAY: Navigating the Kinome. (Class of assay: other) Panel member name: JAK3

>  <BAO Format>  (418) 
assay format

>  <Target>  (418) 
CHEMBL2148

>  <Target Pref. Name>  (418) 
Tyrosine-protein kinase JAK3

>  <Target Organism>  (418) 
Homo sapiens

>  <Target Type>  (418) 
SINGLE PROTEIN

>  <Document>  (418) 
CHEMBL1201862

>  <Source>  (418) 
PubChem BioAssays

>  <Max Phase>  (418) 
0

>  <#Ro5 Violations>  (418) 
0

>  <Molecular Weight>  (418) 
425.46

>  <Ligand Efficiency BEI>  (418) 
nan

>  <Ligand Efficiency LE>  (418) 
nan

>  <Ligand Efficiency LLE>  (418) 
nan

>  <Ligand Efficiency SEI>  (418) 
nan

>  <ALogP>  (418) 
2.48

>  <Assay Organism>  (418) 
nan

>  <Assay Tissue ChEMBL ID>  (418) 
nan

>  <Assay Tissue Name>  (418) 
nan

>  <Assay Cell Type>  (418) 
nan

>  <Assay Subcellular Fraction>  (418) 
nan

>  <Organism Tax ID>  (418) 
9606

>  <BAO Format ID>  (418) 
BAO_0000019

>  <Published Type>  (418) 
nan

>  <Published Relation>  (418) 
nan

>  <Published Value>  (418) 
nan

>  <Published Units>  (418) 
nan

>  <Canonical Smiles>  (418) 
COCOc1cccc(OCOC)c1c2ccc(NS(=O)(=O)C)cc2C(=O)OC

>  <Data Validity Comment>  (418) 
nan

>  <Document Journal>  (418) 
nan

>  <Document Year>  (418) 
nan

>  <SRC ID>  (418) 
7

>  <UO Units>  (418) 
UO_0000065

>  <Potential Duplicate>  (418) 
False

>  <Class>  (418) 
0

$$$$

     RDKit          2D

 28 31  0  0  0  0  0  0  0  0999 V2000
   -0.7500   -6.4952    0.0000 C   0  0  0  0  0  0  0  0  0  0  0  0
    0.7500   -6.4952    0.0000 O   0  0  0  0  0  0  0  0  0  0  0  0
    1.5000   -5.1962    0.0000 C   0  0  0  0  0  0  0  0  0  0  0  0
    0.7500   -3.8971    0.0000 C   0  0  0  0  0  0  0  0  0  0  0  0
    1.5000   -2.5981    0.0000 C   0  0  0  0  0  0  0  0  0  0  0  0
    3.0000   -2.5981    0.0000 C   0  0  0  0  0  0  0  0  0  0  0  0
    3.7500   -3.8971    0.0000 C   0  0  0  0  0  0  0  0  0  0  0  0
    3.0000   -5.1962    0.0000 C   0  0  0  0  0  0  0  0  0  0  0  0
    3.7500   -6.4952    0.0000 O   0  0  0  0  0  0  0  0  0  0  0  0
    0.7500   -1.2990    0.0000 C   0  0  0  0  0  0  0  0  0  0  0  0
    1.5000    0.0000    0.0000 C   0  0  0  0  0  0  0  0  0  0  0  0
    0.7500    1.2990    0.0000 C   0  0  0  0  0  0  0  0  0  0  0  0
   -0.7500    1.2990    0.0000 C   0  0  0  0  0  0  0  0  0  0  0  0
   -1.2980    2.6953    0.0000 C   0  0  0  0  0  0  0  0  0  0  0  0
   -0.2778    3.7949    0.0000 O   0  0  0  0  0  0  0  0  0  0  0  0
   -2.7314    3.1375    0.0000 N   0  0  0  0  0  0  0  0  0  0  0  0
   -3.9707    2.2925    0.0000 C   0  0  0  0  0  0  0  0  0  0  0  0
   -5.2101    3.1375    0.0000 C   0  0  0  0  0  0  0  0  0  0  0  0
   -6.5615    2.4867    0.0000 C   0  0  0  0  0  0  0  0  0  0  0  0
   -6.6736    0.9909    0.0000 C   0  0  0  0  0  0  0  0  0  0  0  0
   -5.4343    0.1459    0.0000 C   0  0  0  0  0  0  0  0  0  0  0  0
   -4.0828    0.7967    0.0000 C   0  0  0  0  0  0  0  0  0  0  0  0
   -2.9832   -0.2236    0.0000 N   0  0  0  0  0  0  0  0  0  0  0  0
   -1.5000    0.0000    0.0000 C   0  0  0  0  0  0  0  0  0  0  0  0
   -0.7500   -1.2990    0.0000 C   0  0  0  0  0  0  0  0  0  0  0  0
   -7.8009    3.3316    0.0000 N   0  0  0  0  0  0  0  0  0  0  0  0
   -9.1524    2.6808    0.0000 O   0  0  0  0  0  0  0  0  0  0  0  0
   -7.6888    4.8274    0.0000 O   0  0  0  0  0  0  0  0  0  0  0  0
  1  2  1  0
  2  3  1  0
  3  4  2  0
  4  5  1  0
  5  6  2  0
  6  7  1  0
  7  8  2  0
  8  9  1  0
  5 10  1  0
 10 11  2  0
 11 12  1  0
 12 13  2  0
 13 14  1  0
 14 15  2  0
 14 16  1  0
 16 17  1  0
 17 18  2  0
 18 19  1  0
 19 20  2  0
 20 21  1  0
 21 22  2  0
 22 23  1  0
 23 24  1  0
 24 25  2  0
 19 26  1  0
 26 27  2  0
 26 28  1  0
  8  3  1  0
 25 10  1  0
 24 13  1  0
 22 17  1  0
M  CHG  2  26   1  28  -1
M  END
>  <Molecule>  (419) 
CHEMBL1995740

>  <Standard Type>  (419) 
Ki

>  <Standard Relation>  (419) 
>

>  <Standard Value>  (419) 
1584.89

>  <Standard Units>  (419) 
nM

>  <pChEMBL Value>  (419) 
nan

>  <Comment>  (419) 
inactive

>  <Compound Key>  (419) 
SID103904713

>  <Assay>  (419) 
CHEMBL1963742

>  <Assay Description>  (419) 
PUBCHEM_BIOASSAY: Navigating the Kinome. (Class of assay: other) Panel member name: JAK3

>  <BAO Format>  (419) 
assay format

>  <Target>  (419) 
CHEMBL2148

>  <Target Pref. Name>  (419) 
Tyrosine-protein kinase JAK3

>  <Target Organism>  (419) 
Homo sapiens

>  <Target Type>  (419) 
SINGLE PROTEIN

>  <Document>  (419) 
CHEMBL1201862

>  <Source>  (419) 
PubChem BioAssays

>  <Max Phase>  (419) 
0

>  <#Ro5 Violations>  (419) 
0

>  <Molecular Weight>  (419) 
377.36

>  <Ligand Efficiency BEI>  (419) 
nan

>  <Ligand Efficiency LE>  (419) 
nan

>  <Ligand Efficiency LLE>  (419) 
nan

>  <Ligand Efficiency SEI>  (419) 
nan

>  <ALogP>  (419) 
4.29

>  <Assay Organism>  (419) 
nan

>  <Assay Tissue ChEMBL ID>  (419) 
nan

>  <Assay Tissue Name>  (419) 
nan

>  <Assay Cell Type>  (419) 
nan

>  <Assay Subcellular Fraction>  (419) 
nan

>  <Organism Tax ID>  (419) 
9606

>  <BAO Format ID>  (419) 
BAO_0000019

>  <Published Type>  (419) 
nan

>  <Published Relation>  (419) 
nan

>  <Published Value>  (419) 
nan

>  <Published Units>  (419) 
nan

>  <Canonical Smiles>  (419) 
COc1cc(ccc1O)c2ccc3C(=O)Nc4cc(ccc4Nc3c2)[N+](=O)[O-]

>  <Data Validity Comment>  (419) 
nan

>  <Document Journal>  (419) 
nan

>  <Document Year>  (419) 
nan

>  <SRC ID>  (419) 
7

>  <UO Units>  (419) 
UO_0000065

>  <Potential Duplicate>  (419) 
False

>  <Class>  (419) 
0

$$$$

     RDKit          2D

 29 32  0  0  0  0  0  0  0  0999 V2000
   -1.5718    8.0851    0.0000 C   0  0  0  0  0  0  0  0  0  0  0  0
   -1.8836    6.6179    0.0000 C   0  0  0  0  0  0  0  0  0  0  0  0
   -3.3102    6.1544    0.0000 N   0  0  0  0  0  0  0  0  0  0  0  0
   -3.6221    4.6871    0.0000 C   0  0  0  0  0  0  0  0  0  0  0  0
   -2.5074    3.6834    0.0000 O   0  0  0  0  0  0  0  0  0  0  0  0
   -5.0487    4.2236    0.0000 N   0  0  0  0  0  0  0  0  0  0  0  0
   -5.3605    2.7564    0.0000 C   0  0  0  0  0  0  0  0  0  0  0  0
   -4.2458    1.7527    0.0000 C   0  0  0  0  0  0  0  0  0  0  0  0
   -4.5577    0.2855    0.0000 C   0  0  0  0  0  0  0  0  0  0  0  0
   -5.9843   -0.1781    0.0000 C   0  0  0  0  0  0  0  0  0  0  0  0
   -7.0990    0.8256    0.0000 C   0  0  0  0  0  0  0  0  0  0  0  0
   -6.7871    2.2929    0.0000 C   0  0  0  0  0  0  0  0  0  0  0  0
   -6.2961   -1.6453    0.0000 N   0  0  0  0  0  0  0  0  0  0  0  0
   -5.1814   -2.6490    0.0000 C   0  0  0  0  0  0  0  0  0  0  0  0
   -5.4933   -4.1162    0.0000 N   0  0  0  0  0  0  0  0  0  0  0  0
   -4.3786   -5.1199    0.0000 C   0  0  0  0  0  0  0  0  0  0  0  0
   -4.6904   -6.5871    0.0000 Cl  0  0  0  0  0  0  0  0  0  0  0  0
   -2.9520   -4.6564    0.0000 C   0  0  0  0  0  0  0  0  0  0  0  0
   -2.6401   -3.1891    0.0000 C   0  0  0  0  0  0  0  0  0  0  0  0
   -3.7548   -2.1855    0.0000 N   0  0  0  0  0  0  0  0  0  0  0  0
   -1.2135   -2.7256    0.0000 C   0  0  0  0  0  0  0  0  0  0  0  0
    0.0000   -3.6073    0.0000 C   0  0  0  0  0  0  0  0  0  0  0  0
    1.2135   -2.7256    0.0000 N   0  0  0  0  0  0  0  0  0  0  0  0
    0.7500   -1.2990    0.0000 C   0  0  0  0  0  0  0  0  0  0  0  0
    1.5000    0.0000    0.0000 N   0  0  0  0  0  0  0  0  0  0  0  0
    0.7500    1.2990    0.0000 C   0  0  0  0  0  0  0  0  0  0  0  0
   -0.7500    1.2990    0.0000 C   0  0  0  0  0  0  0  0  0  0  0  0
   -1.5000    0.0000    0.0000 C   0  0  0  0  0  0  0  0  0  0  0  0
   -0.7500   -1.2990    0.0000 C   0  0  0  0  0  0  0  0  0  0  0  0
  1  2  1  0
  2  3  1  0
  3  4  1  0
  4  5  2  0
  4  6  1  0
  6  7  1  0
  7  8  1  0
  8  9  1  0
  9 10  1  0
 10 11  1  0
 11 12  1  0
 10 13  1  0
 13 14  1  0
 14 15  2  0
 15 16  1  0
 16 17  1  0
 16 18  2  0
 18 19  1  0
 19 20  2  0
 19 21  1  0
 21 22  2  0
 22 23  1  0
 23 24  1  0
 24 25  2  0
 25 26  1  0
 26 27  2  0
 27 28  1  0
 28 29  2  0
 12  7  1  0
 20 14  1  0
 29 21  1  0
 29 24  1  0
M  END
>  <Molecule>  (420) 
CHEMBL1992220

>  <Standard Type>  (420) 
Ki

>  <Standard Relation>  (420) 
=

>  <Standard Value>  (420) 
79.43

>  <Standard Units>  (420) 
nM

>  <pChEMBL Value>  (420) 
7.1

>  <Comment>  (420) 
active

>  <Compound Key>  (420) 
SID103904232

>  <Assay>  (420) 
CHEMBL1963742

>  <Assay Description>  (420) 
PUBCHEM_BIOASSAY: Navigating the Kinome. (Class of assay: other) Panel member name: JAK3

>  <BAO Format>  (420) 
assay format

>  <Target>  (420) 
CHEMBL2148

>  <Target Pref. Name>  (420) 
Tyrosine-protein kinase JAK3

>  <Target Organism>  (420) 
Homo sapiens

>  <Target Type>  (420) 
SINGLE PROTEIN

>  <Document>  (420) 
CHEMBL1201862

>  <Source>  (420) 
PubChem BioAssays

>  <Max Phase>  (420) 
0

>  <#Ro5 Violations>  (420) 
0

>  <Molecular Weight>  (420) 
413.91

>  <Ligand Efficiency BEI>  (420) 
nan

>  <Ligand Efficiency LE>  (420) 
nan

>  <Ligand Efficiency LLE>  (420) 
nan

>  <Ligand Efficiency SEI>  (420) 
nan

>  <ALogP>  (420) 
3.72

>  <Assay Organism>  (420) 
nan

>  <Assay Tissue ChEMBL ID>  (420) 
nan

>  <Assay Tissue Name>  (420) 
nan

>  <Assay Cell Type>  (420) 
nan

>  <Assay Subcellular Fraction>  (420) 
nan

>  <Organism Tax ID>  (420) 
9606

>  <BAO Format ID>  (420) 
BAO_0000019

>  <Published Type>  (420) 
nan

>  <Published Relation>  (420) 
nan

>  <Published Value>  (420) 
nan

>  <Published Units>  (420) 
nan

>  <Canonical Smiles>  (420) 
CCNC(=O)NC1CCC(CC1)Nc2nc(Cl)cc(n2)c3c[nH]c4ncccc34

>  <Data Validity Comment>  (420) 
nan

>  <Document Journal>  (420) 
nan

>  <Document Year>  (420) 
nan

>  <SRC ID>  (420) 
7

>  <UO Units>  (420) 
UO_0000065

>  <Potential Duplicate>  (420) 
False

>  <Class>  (420) 
1

$$$$

     RDKit          2D

 16 18  0  0  0  0  0  0  0  0999 V2000
   -2.6401   -3.1891    0.0000 O   0  0  0  0  0  0  0  0  0  0  0  0
   -1.2135   -2.7256    0.0000 C   0  0  0  0  0  0  0  0  0  0  0  0
   -0.0000   -3.6073    0.0000 N   0  0  0  0  0  0  0  0  0  0  0  0
    1.2135   -2.7256    0.0000 N   0  0  0  0  0  0  0  0  0  0  0  0
    0.7500   -1.2990    0.0000 C   0  0  0  0  0  0  0  0  0  0  0  0
    1.5000    0.0000    0.0000 C   0  0  0  0  0  0  0  0  0  0  0  0
    0.7500    1.2990    0.0000 C   0  0  0  0  0  0  0  0  0  0  0  0
   -0.7500    1.2990    0.0000 C   0  0  0  0  0  0  0  0  0  0  0  0
   -1.5000    0.0000    0.0000 C   0  0  0  0  0  0  0  0  0  0  0  0
   -3.0000    0.0000    0.0000 C   0  0  0  0  0  0  0  0  0  0  0  0
   -3.7500    1.2990    0.0000 C   0  0  0  0  0  0  0  0  0  0  0  0
   -5.2500    1.2990    0.0000 C   0  0  0  0  0  0  0  0  0  0  0  0
   -6.0000    0.0000    0.0000 C   0  0  0  0  0  0  0  0  0  0  0  0
   -5.2500   -1.2990    0.0000 C   0  0  0  0  0  0  0  0  0  0  0  0
   -3.7500   -1.2990    0.0000 C   0  0  0  0  0  0  0  0  0  0  0  0
   -0.7500   -1.2990    0.0000 C   0  0  0  0  0  0  0  0  0  0  0  0
  1  2  2  0
  2  3  1  0
  3  4  1  0
  4  5  1  0
  5  6  2  0
  6  7  1  0
  7  8  2  0
  8  9  1  0
  9 10  1  0
 10 11  2  0
 11 12  1  0
 12 13  2  0
 13 14  1  0
 14 15  2  0
  9 16  2  0
 16  2  1  0
 16  5  1  0
 15 10  1  0
M  END
>  <Molecule>  (421) 
CHEMBL1989834

>  <Standard Type>  (421) 
Ki

>  <Standard Relation>  (421) 
>

>  <Standard Value>  (421) 
31622.78

>  <Standard Units>  (421) 
nM

>  <pChEMBL Value>  (421) 
nan

>  <Comment>  (421) 
inactive

>  <Compound Key>  (421) 
SID103905442

>  <Assay>  (421) 
CHEMBL1963742

>  <Assay Description>  (421) 
PUBCHEM_BIOASSAY: Navigating the Kinome. (Class of assay: other) Panel member name: JAK3

>  <BAO Format>  (421) 
assay format

>  <Target>  (421) 
CHEMBL2148

>  <Target Pref. Name>  (421) 
Tyrosine-protein kinase JAK3

>  <Target Organism>  (421) 
Homo sapiens

>  <Target Type>  (421) 
SINGLE PROTEIN

>  <Document>  (421) 
CHEMBL1201862

>  <Source>  (421) 
PubChem BioAssays

>  <Max Phase>  (421) 
0

>  <#Ro5 Violations>  (421) 
0

>  <Molecular Weight>  (421) 
210.24

>  <Ligand Efficiency BEI>  (421) 
nan

>  <Ligand Efficiency LE>  (421) 
nan

>  <Ligand Efficiency LLE>  (421) 
nan

>  <Ligand Efficiency SEI>  (421) 
nan

>  <ALogP>  (421) 
2.52

>  <Assay Organism>  (421) 
nan

>  <Assay Tissue ChEMBL ID>  (421) 
nan

>  <Assay Tissue Name>  (421) 
nan

>  <Assay Cell Type>  (421) 
nan

>  <Assay Subcellular Fraction>  (421) 
nan

>  <Organism Tax ID>  (421) 
9606

>  <BAO Format ID>  (421) 
BAO_0000019

>  <Published Type>  (421) 
nan

>  <Published Relation>  (421) 
nan

>  <Published Value>  (421) 
nan

>  <Published Units>  (421) 
nan

>  <Canonical Smiles>  (421) 
O=C1NNc2cccc(c3ccccc3)c12

>  <Data Validity Comment>  (421) 
nan

>  <Document Journal>  (421) 
nan

>  <Document Year>  (421) 
nan

>  <SRC ID>  (421) 
7

>  <UO Units>  (421) 
UO_0000065

>  <Potential Duplicate>  (421) 
False

>  <Class>  (421) 
0

$$$$

     RDKit          2D

 24 26  0  0  0  0  0  0  0  0999 V2000
    0.4775   -7.0740    0.0000 C   0  0  0  0  0  0  0  0  0  0  0  0
    1.8478   -6.4639    0.0000 C   0  0  0  0  0  0  0  0  0  0  0  0
    2.0046   -4.9721    0.0000 N   0  0  0  0  0  0  0  0  0  0  0  0
    3.3037   -4.2221    0.0000 C   0  0  0  0  0  0  0  0  0  0  0  0
    4.6740   -4.8322    0.0000 O   0  0  0  0  0  0  0  0  0  0  0  0
    2.9918   -2.7549    0.0000 S   0  0  0  0  0  0  0  0  0  0  0  0
    1.5000   -2.5981    0.0000 C   0  0  0  0  0  0  0  0  0  0  0  0
    0.8899   -3.9684    0.0000 C   0  0  0  0  0  0  0  0  0  0  0  0
   -0.5773   -4.2803    0.0000 C   0  0  0  0  0  0  0  0  0  0  0  0
    0.7500   -1.2990    0.0000 C   0  0  0  0  0  0  0  0  0  0  0  0
    1.5000    0.0000    0.0000 C   0  0  0  0  0  0  0  0  0  0  0  0
    0.7500    1.2990    0.0000 C   0  0  0  0  0  0  0  0  0  0  0  0
   -0.7500    1.2990    0.0000 N   0  0  0  0  0  0  0  0  0  0  0  0
   -1.5000    0.0000    0.0000 C   0  0  0  0  0  0  0  0  0  0  0  0
   -3.0000    0.0000    0.0000 N   0  0  0  0  0  0  0  0  0  0  0  0
   -3.7500    1.2990    0.0000 C   0  0  0  0  0  0  0  0  0  0  0  0
   -3.0000    2.5981    0.0000 C   0  0  0  0  0  0  0  0  0  0  0  0
   -3.7500    3.8971    0.0000 C   0  0  0  0  0  0  0  0  0  0  0  0
   -5.2500    3.8971    0.0000 C   0  0  0  0  0  0  0  0  0  0  0  0
   -6.0000    2.5981    0.0000 C   0  0  0  0  0  0  0  0  0  0  0  0
   -7.5000    2.5981    0.0000 O   0  0  0  0  0  0  0  0  0  0  0  0
   -8.2500    3.8971    0.0000 C   0  0  0  0  0  0  0  0  0  0  0  0
   -5.2500    1.2990    0.0000 C   0  0  0  0  0  0  0  0  0  0  0  0
   -0.7500   -1.2990    0.0000 N   0  0  0  0  0  0  0  0  0  0  0  0
  1  2  1  0
  2  3  1  0
  3  4  1  0
  4  5  2  0
  4  6  1  0
  6  7  1  0
  7  8  2  0
  8  9  1  0
  7 10  1  0
 10 11  2  0
 11 12  1  0
 12 13  2  0
 13 14  1  0
 14 15  1  0
 15 16  1  0
 16 17  2  0
 17 18  1  0
 18 19  2  0
 19 20  1  0
 20 21  1  0
 21 22  1  0
 20 23  2  0
 14 24  2  0
  8  3  1  0
 24 10  1  0
 23 16  1  0
M  END
>  <Molecule>  (422) 
CHEMBL1986263

>  <Standard Type>  (422) 
Ki

>  <Standard Relation>  (422) 
=

>  <Standard Value>  (422) 
501.19

>  <Standard Units>  (422) 
nM

>  <pChEMBL Value>  (422) 
6.3

>  <Comment>  (422) 
active

>  <Compound Key>  (422) 
SID103904649

>  <Assay>  (422) 
CHEMBL1963742

>  <Assay Description>  (422) 
PUBCHEM_BIOASSAY: Navigating the Kinome. (Class of assay: other) Panel member name: JAK3

>  <BAO Format>  (422) 
assay format

>  <Target>  (422) 
CHEMBL2148

>  <Target Pref. Name>  (422) 
Tyrosine-protein kinase JAK3

>  <Target Organism>  (422) 
Homo sapiens

>  <Target Type>  (422) 
SINGLE PROTEIN

>  <Document>  (422) 
CHEMBL1201862

>  <Source>  (422) 
PubChem BioAssays

>  <Max Phase>  (422) 
0

>  <#Ro5 Violations>  (422) 
0

>  <Molecular Weight>  (422) 
342.42

>  <Ligand Efficiency BEI>  (422) 
nan

>  <Ligand Efficiency LE>  (422) 
nan

>  <Ligand Efficiency LLE>  (422) 
nan

>  <Ligand Efficiency SEI>  (422) 
nan

>  <ALogP>  (422) 
3.45

>  <Assay Organism>  (422) 
nan

>  <Assay Tissue ChEMBL ID>  (422) 
nan

>  <Assay Tissue Name>  (422) 
nan

>  <Assay Cell Type>  (422) 
nan

>  <Assay Subcellular Fraction>  (422) 
nan

>  <Organism Tax ID>  (422) 
9606

>  <BAO Format ID>  (422) 
BAO_0000019

>  <Published Type>  (422) 
nan

>  <Published Relation>  (422) 
nan

>  <Published Value>  (422) 
nan

>  <Published Units>  (422) 
nan

>  <Canonical Smiles>  (422) 
CCN1C(=O)SC(=C1C)c2ccnc(Nc3cccc(OC)c3)n2

>  <Data Validity Comment>  (422) 
nan

>  <Document Journal>  (422) 
nan

>  <Document Year>  (422) 
nan

>  <SRC ID>  (422) 
7

>  <UO Units>  (422) 
UO_0000065

>  <Potential Duplicate>  (422) 
False

>  <Class>  (422) 
1

$$$$

     RDKit          2D

 20 22  0  0  0  0  0  0  0  0999 V2000
   -2.9520   -4.6564    0.0000 C   0  0  0  0  0  0  0  0  0  0  0  0
   -2.6401   -3.1891    0.0000 C   0  0  0  0  0  0  0  0  0  0  0  0
   -1.2135   -2.7256    0.0000 C   0  0  0  0  0  0  0  0  0  0  0  0
   -0.0000   -3.6073    0.0000 C   0  0  0  0  0  0  0  0  0  0  0  0
    1.2135   -2.7256    0.0000 N   0  0  0  0  0  0  0  0  0  0  0  0
    0.7500   -1.2990    0.0000 C   0  0  0  0  0  0  0  0  0  0  0  0
    1.5000    0.0000    0.0000 N   0  0  0  0  0  0  0  0  0  0  0  0
    0.7500    1.2990    0.0000 C   0  0  0  0  0  0  0  0  0  0  0  0
   -0.7500    1.2990    0.0000 C   0  0  0  0  0  0  0  0  0  0  0  0
   -1.5000    0.0000    0.0000 N   0  0  0  0  0  0  0  0  0  0  0  0
   -0.7500   -1.2990    0.0000 C   0  0  0  0  0  0  0  0  0  0  0  0
   -0.0000   -5.1073    0.0000 C   0  0  0  0  0  0  0  0  0  0  0  0
   -1.2990   -5.8573    0.0000 C   0  0  0  0  0  0  0  0  0  0  0  0
   -1.2990   -7.3573    0.0000 C   0  0  0  0  0  0  0  0  0  0  0  0
   -0.0000   -8.1073    0.0000 C   0  0  0  0  0  0  0  0  0  0  0  0
    1.2990   -7.3573    0.0000 C   0  0  0  0  0  0  0  0  0  0  0  0
    1.2990   -5.8573    0.0000 C   0  0  0  0  0  0  0  0  0  0  0  0
   -0.0000   -9.6073    0.0000 C   0  0  0  0  0  0  0  0  0  0  0  0
    1.2990  -10.3573    0.0000 O   0  0  0  0  0  0  0  0  0  0  0  0
   -1.2990  -10.3573    0.0000 C   0  0  0  0  0  0  0  0  0  0  0  0
  1  2  1  0
  2  3  1  0
  3  4  2  0
  4  5  1  0
  5  6  1  0
  6  7  2  0
  7  8  1  0
  8  9  2  0
  9 10  1  0
 10 11  2  0
  4 12  1  0
 12 13  2  0
 13 14  1  0
 14 15  2  0
 15 16  1  0
 16 17  2  0
 15 18  1  0
 18 19  2  0
 18 20  1  0
 11  3  1  0
 11  6  1  0
 17 12  1  0
M  END
>  <Molecule>  (423) 
CHEMBL1994555

>  <Standard Type>  (423) 
Ki

>  <Standard Relation>  (423) 
>

>  <Standard Value>  (423) 
5011.87

>  <Standard Units>  (423) 
nM

>  <pChEMBL Value>  (423) 
nan

>  <Comment>  (423) 
inactive

>  <Compound Key>  (423) 
SID103905323

>  <Assay>  (423) 
CHEMBL1963742

>  <Assay Description>  (423) 
PUBCHEM_BIOASSAY: Navigating the Kinome. (Class of assay: other) Panel member name: JAK3

>  <BAO Format>  (423) 
assay format

>  <Target>  (423) 
CHEMBL2148

>  <Target Pref. Name>  (423) 
Tyrosine-protein kinase JAK3

>  <Target Organism>  (423) 
Homo sapiens

>  <Target Type>  (423) 
SINGLE PROTEIN

>  <Document>  (423) 
CHEMBL1201862

>  <Source>  (423) 
PubChem BioAssays

>  <Max Phase>  (423) 
0

>  <#Ro5 Violations>  (423) 
0

>  <Molecular Weight>  (423) 
265.32

>  <Ligand Efficiency BEI>  (423) 
nan

>  <Ligand Efficiency LE>  (423) 
nan

>  <Ligand Efficiency LLE>  (423) 
nan

>  <Ligand Efficiency SEI>  (423) 
nan

>  <ALogP>  (423) 
3.39

>  <Assay Organism>  (423) 
nan

>  <Assay Tissue ChEMBL ID>  (423) 
nan

>  <Assay Tissue Name>  (423) 
nan

>  <Assay Cell Type>  (423) 
nan

>  <Assay Subcellular Fraction>  (423) 
nan

>  <Organism Tax ID>  (423) 
9606

>  <BAO Format ID>  (423) 
BAO_0000019

>  <Published Type>  (423) 
nan

>  <Published Relation>  (423) 
nan

>  <Published Value>  (423) 
nan

>  <Published Units>  (423) 
nan

>  <Canonical Smiles>  (423) 
CCc1c([nH]c2nccnc12)c3ccc(cc3)C(=O)C

>  <Data Validity Comment>  (423) 
nan

>  <Document Journal>  (423) 
nan

>  <Document Year>  (423) 
nan

>  <SRC ID>  (423) 
7

>  <UO Units>  (423) 
UO_0000065

>  <Potential Duplicate>  (423) 
False

>  <Class>  (423) 
0

$$$$

     RDKit          2D

 21 23  0  0  0  0  0  0  0  0999 V2000
   -5.7221   -1.8037    0.0000 N   0  0  0  0  0  0  0  0  0  0  0  0
   -4.4231   -2.5537    0.0000 C   0  0  0  0  0  0  0  0  0  0  0  0
   -4.4231   -4.0537    0.0000 O   0  0  0  0  0  0  0  0  0  0  0  0
   -3.1240   -1.8037    0.0000 C   0  0  0  0  0  0  0  0  0  0  0  0
   -1.7537   -2.4138    0.0000 C   0  0  0  0  0  0  0  0  0  0  0  0
   -0.7500   -1.2990    0.0000 C   0  0  0  0  0  0  0  0  0  0  0  0
    0.7500   -1.2990    0.0000 C   0  0  0  0  0  0  0  0  0  0  0  0
    1.5000    0.0000    0.0000 C   0  0  0  0  0  0  0  0  0  0  0  0
    0.7500    1.2990    0.0000 N   0  0  0  0  0  0  0  0  0  0  0  0
   -0.7500    1.2990    0.0000 C   0  0  0  0  0  0  0  0  0  0  0  0
   -1.5000    0.0000    0.0000 C   0  0  0  0  0  0  0  0  0  0  0  0
   -2.9672   -0.3119    0.0000 S   0  0  0  0  0  0  0  0  0  0  0  0
    1.5000   -2.5981    0.0000 C   0  0  0  0  0  0  0  0  0  0  0  0
    0.7500   -3.8971    0.0000 C   0  0  0  0  0  0  0  0  0  0  0  0
    1.5000   -5.1962    0.0000 C   0  0  0  0  0  0  0  0  0  0  0  0
    3.0000   -5.1962    0.0000 C   0  0  0  0  0  0  0  0  0  0  0  0
    3.7500   -6.4952    0.0000 Br  0  0  0  0  0  0  0  0  0  0  0  0
    3.7500   -3.8971    0.0000 C   0  0  0  0  0  0  0  0  0  0  0  0
    5.2500   -3.8971    0.0000 F   0  0  0  0  0  0  0  0  0  0  0  0
    3.0000   -2.5981    0.0000 C   0  0  0  0  0  0  0  0  0  0  0  0
    3.7500   -1.2990    0.0000 F   0  0  0  0  0  0  0  0  0  0  0  0
  1  2  1  0
  2  3  2  0
  2  4  1  0
  4  5  2  0
  5  6  1  0
  6  7  2  0
  7  8  1  0
  8  9  2  0
  9 10  1  0
 10 11  2  0
 11 12  1  0
  7 13  1  0
 13 14  2  0
 14 15  1  0
 15 16  2  0
 16 17  1  0
 16 18  1  0
 18 19  1  0
 18 20  2  0
 20 21  1  0
 12  4  1  0
 11  6  1  0
 20 13  1  0
M  END
>  <Molecule>  (424) 
CHEMBL1999918

>  <Standard Type>  (424) 
Ki

>  <Standard Relation>  (424) 
=

>  <Standard Value>  (424) 
1258.93

>  <Standard Units>  (424) 
nM

>  <pChEMBL Value>  (424) 
5.9

>  <Comment>  (424) 
active

>  <Compound Key>  (424) 
SID103905043

>  <Assay>  (424) 
CHEMBL1963742

>  <Assay Description>  (424) 
PUBCHEM_BIOASSAY: Navigating the Kinome. (Class of assay: other) Panel member name: JAK3

>  <BAO Format>  (424) 
assay format

>  <Target>  (424) 
CHEMBL2148

>  <Target Pref. Name>  (424) 
Tyrosine-protein kinase JAK3

>  <Target Organism>  (424) 
Homo sapiens

>  <Target Type>  (424) 
SINGLE PROTEIN

>  <Document>  (424) 
CHEMBL1201862

>  <Source>  (424) 
PubChem BioAssays

>  <Max Phase>  (424) 
0

>  <#Ro5 Violations>  (424) 
0

>  <Molecular Weight>  (424) 
369.19

>  <Ligand Efficiency BEI>  (424) 
nan

>  <Ligand Efficiency LE>  (424) 
nan

>  <Ligand Efficiency LLE>  (424) 
nan

>  <Ligand Efficiency SEI>  (424) 
nan

>  <ALogP>  (424) 
4.1

>  <Assay Organism>  (424) 
nan

>  <Assay Tissue ChEMBL ID>  (424) 
nan

>  <Assay Tissue Name>  (424) 
nan

>  <Assay Cell Type>  (424) 
nan

>  <Assay Subcellular Fraction>  (424) 
nan

>  <Organism Tax ID>  (424) 
9606

>  <BAO Format ID>  (424) 
BAO_0000019

>  <Published Type>  (424) 
nan

>  <Published Relation>  (424) 
nan

>  <Published Value>  (424) 
nan

>  <Published Units>  (424) 
nan

>  <Canonical Smiles>  (424) 
NC(=O)c1cc2c(cncc2s1)c3ccc(Br)c(F)c3F

>  <Data Validity Comment>  (424) 
nan

>  <Document Journal>  (424) 
nan

>  <Document Year>  (424) 
nan

>  <SRC ID>  (424) 
7

>  <UO Units>  (424) 
UO_0000065

>  <Potential Duplicate>  (424) 
False

>  <Class>  (424) 
1

$$$$

     RDKit          2D

 26 28  0  0  0  0  0  0  0  0999 V2000
    3.7500   -1.2990    0.0000 C   0  0  0  0  0  0  0  0  0  0  0  0
    3.0000    0.0000    0.0000 O   0  0  0  0  0  0  0  0  0  0  0  0
    1.5000    0.0000    0.0000 C   0  0  0  0  0  0  0  0  0  0  0  0
    0.7500   -1.2990    0.0000 C   0  0  0  0  0  0  0  0  0  0  0  0
   -0.7500   -1.2990    0.0000 C   0  0  0  0  0  0  0  0  0  0  0  0
   -1.5000    0.0000    0.0000 C   0  0  0  0  0  0  0  0  0  0  0  0
   -0.7500    1.2990    0.0000 C   0  0  0  0  0  0  0  0  0  0  0  0
    0.7500    1.2990    0.0000 C   0  0  0  0  0  0  0  0  0  0  0  0
   -1.5000    2.5981    0.0000 C   0  0  0  0  0  0  0  0  0  0  0  0
   -0.7500    3.8971    0.0000 C   0  0  0  0  0  0  0  0  0  0  0  0
   -3.0000    2.5981    0.0000 N   0  0  0  0  0  0  0  0  0  0  0  0
   -3.7500    3.8971    0.0000 C   0  0  0  0  0  0  0  0  0  0  0  0
   -3.0000    5.1962    0.0000 O   0  0  0  0  0  0  0  0  0  0  0  0
   -5.2500    3.8971    0.0000 C   0  0  0  0  0  0  0  0  0  0  0  0
   -6.0000    5.1962    0.0000 C   0  0  0  0  0  0  0  0  0  0  0  0
   -7.5000    5.1962    0.0000 C   0  0  0  0  0  0  0  0  0  0  0  0
   -8.2500    3.8971    0.0000 C   0  0  0  0  0  0  0  0  0  0  0  0
   -7.5000    2.5981    0.0000 C   0  0  0  0  0  0  0  0  0  0  0  0
   -8.2500    1.2990    0.0000 C   0  0  0  0  0  0  0  0  0  0  0  0
   -6.0000    2.5981    0.0000 C   0  0  0  0  0  0  0  0  0  0  0  0
   -9.7500    3.8971    0.0000 C   0  0  0  0  0  0  0  0  0  0  0  0
  -10.5000    5.1962    0.0000 C   0  0  0  0  0  0  0  0  0  0  0  0
  -12.0000    5.1962    0.0000 C   0  0  0  0  0  0  0  0  0  0  0  0
  -12.7500    3.8971    0.0000 N   0  0  0  0  0  0  0  0  0  0  0  0
  -12.0000    2.5981    0.0000 C   0  0  0  0  0  0  0  0  0  0  0  0
  -10.5000    2.5981    0.0000 C   0  0  0  0  0  0  0  0  0  0  0  0
  1  2  1  0
  2  3  1  0
  3  4  2  0
  4  5  1  0
  5  6  2  0
  6  7  1  0
  7  8  2  0
  7  9  1  0
  9 10  1  0
  9 11  1  0
 11 12  1  0
 12 13  2  0
 12 14  1  0
 14 15  2  0
 15 16  1  0
 16 17  2  0
 17 18  1  0
 18 19  1  0
 18 20  2  0
 17 21  1  0
 21 22  2  0
 22 23  1  0
 23 24  2  0
 24 25  1  0
 25 26  2  0
  8  3  1  0
 20 14  1  0
 26 21  1  0
M  END
>  <Molecule>  (425) 
CHEMBL1969049

>  <Standard Type>  (425) 
Ki

>  <Standard Relation>  (425) 
>

>  <Standard Value>  (425) 
1584.89

>  <Standard Units>  (425) 
nM

>  <pChEMBL Value>  (425) 
nan

>  <Comment>  (425) 
inactive

>  <Compound Key>  (425) 
SID103904559

>  <Assay>  (425) 
CHEMBL1963742

>  <Assay Description>  (425) 
PUBCHEM_BIOASSAY: Navigating the Kinome. (Class of assay: other) Panel member name: JAK3

>  <BAO Format>  (425) 
assay format

>  <Target>  (425) 
CHEMBL2148

>  <Target Pref. Name>  (425) 
Tyrosine-protein kinase JAK3

>  <Target Organism>  (425) 
Homo sapiens

>  <Target Type>  (425) 
SINGLE PROTEIN

>  <Document>  (425) 
CHEMBL1201862

>  <Source>  (425) 
PubChem BioAssays

>  <Max Phase>  (425) 
0

>  <#Ro5 Violations>  (425) 
0

>  <Molecular Weight>  (425) 
346.43

>  <Ligand Efficiency BEI>  (425) 
nan

>  <Ligand Efficiency LE>  (425) 
nan

>  <Ligand Efficiency LLE>  (425) 
nan

>  <Ligand Efficiency SEI>  (425) 
nan

>  <ALogP>  (425) 
4.56

>  <Assay Organism>  (425) 
nan

>  <Assay Tissue ChEMBL ID>  (425) 
nan

>  <Assay Tissue Name>  (425) 
nan

>  <Assay Cell Type>  (425) 
nan

>  <Assay Subcellular Fraction>  (425) 
nan

>  <Organism Tax ID>  (425) 
9606

>  <BAO Format ID>  (425) 
BAO_0000019

>  <Published Type>  (425) 
nan

>  <Published Relation>  (425) 
nan

>  <Published Value>  (425) 
nan

>  <Published Units>  (425) 
nan

>  <Canonical Smiles>  (425) 
COc1cccc(c1)C(C)NC(=O)c2ccc(c(C)c2)c3ccncc3

>  <Data Validity Comment>  (425) 
nan

>  <Document Journal>  (425) 
nan

>  <Document Year>  (425) 
nan

>  <SRC ID>  (425) 
7

>  <UO Units>  (425) 
UO_0000065

>  <Potential Duplicate>  (425) 
False

>  <Class>  (425) 
0

$$$$

     RDKit          2D

 39 43  0  0  0  0  0  0  0  0999 V2000
   -1.3098   -7.8921    0.0000 C   0  0  0  0  0  0  0  0  0  0  0  0
   -0.6996   -6.5218    0.0000 C   0  0  0  0  0  0  0  0  0  0  0  0
    0.7921   -6.3650    0.0000 C   0  0  0  0  0  0  0  0  0  0  0  0
    1.4022   -4.9947    0.0000 O   0  0  0  0  0  0  0  0  0  0  0  0
    1.6738   -7.5785    0.0000 N   0  0  0  0  0  0  0  0  0  0  0  0
    3.1656   -7.4217    0.0000 C   0  0  0  0  0  0  0  0  0  0  0  0
    1.0637   -8.9488    0.0000 C   0  0  0  0  0  0  0  0  0  0  0  0
   -1.5813   -5.3083    0.0000 N   0  0  0  0  0  0  0  0  0  0  0  0
   -1.1178   -3.8817    0.0000 C   0  0  0  0  0  0  0  0  0  0  0  0
   -2.3313   -3.0000    0.0000 C   0  0  0  0  0  0  0  0  0  0  0  0
   -3.5449   -3.8817    0.0000 C   0  0  0  0  0  0  0  0  0  0  0  0
   -3.0813   -5.3083    0.0000 N   0  0  0  0  0  0  0  0  0  0  0  0
   -2.3313   -1.5000    0.0000 C   0  0  0  0  0  0  0  0  0  0  0  0
   -3.6304   -0.7500    0.0000 C   0  0  0  0  0  0  0  0  0  0  0  0
   -3.6304    0.7500    0.0000 N   0  0  0  0  0  0  0  0  0  0  0  0
   -2.3313    1.5000    0.0000 C   0  0  0  0  0  0  0  0  0  0  0  0
   -2.3313    3.0000    0.0000 N   0  0  0  0  0  0  0  0  0  0  0  0
   -1.0323    0.7500    0.0000 C   0  0  0  0  0  0  0  0  0  0  0  0
    0.3943    1.2135    0.0000 C   0  0  0  0  0  0  0  0  0  0  0  0
    1.2760    0.0000    0.0000 C   0  0  0  0  0  0  0  0  0  0  0  0
    0.3943   -1.2135    0.0000 S   0  0  0  0  0  0  0  0  0  0  0  0
   -1.0323   -0.7500    0.0000 C   0  0  0  0  0  0  0  0  0  0  0  0
    0.8578    2.6401    0.0000 C   0  0  0  0  0  0  0  0  0  0  0  0
    2.3250    2.9520    0.0000 C   0  0  0  0  0  0  0  0  0  0  0  0
    2.7886    4.3786    0.0000 C   0  0  0  0  0  0  0  0  0  0  0  0
    1.7849    5.4933    0.0000 C   0  0  0  0  0  0  0  0  0  0  0  0
    2.2484    6.9199    0.0000 N   0  0  0  0  0  0  0  0  0  0  0  0
    3.7156    7.2317    0.0000 C   0  0  0  0  0  0  0  0  0  0  0  0
    4.7193    6.1170    0.0000 O   0  0  0  0  0  0  0  0  0  0  0  0
    4.1791    8.6583    0.0000 N   0  0  0  0  0  0  0  0  0  0  0  0
    5.6464    8.9702    0.0000 C   0  0  0  0  0  0  0  0  0  0  0  0
    6.6501    7.8555    0.0000 C   0  0  0  0  0  0  0  0  0  0  0  0
    8.1173    8.1673    0.0000 C   0  0  0  0  0  0  0  0  0  0  0  0
    8.5808    9.5939    0.0000 C   0  0  0  0  0  0  0  0  0  0  0  0
   10.0480    9.9058    0.0000 C   0  0  0  0  0  0  0  0  0  0  0  0
    7.5771   10.7086    0.0000 C   0  0  0  0  0  0  0  0  0  0  0  0
    6.1099   10.3968    0.0000 C   0  0  0  0  0  0  0  0  0  0  0  0
    0.3177    5.1814    0.0000 C   0  0  0  0  0  0  0  0  0  0  0  0
   -0.1459    3.7548    0.0000 C   0  0  0  0  0  0  0  0  0  0  0  0
  1  2  1  0
  2  3  1  0
  3  4  2  0
  3  5  1  0
  5  6  1  0
  5  7  1  0
  2  8  1  0
  8  9  1  0
  9 10  2  0
 10 11  1  0
 11 12  2  0
 10 13  1  0
 13 14  2  0
 14 15  1  0
 15 16  2  0
 16 17  1  0
 16 18  1  0
 18 19  1  0
 19 20  2  0
 20 21  1  0
 21 22  1  0
 19 23  1  0
 23 24  2  0
 24 25  1  0
 25 26  2  0
 26 27  1  0
 27 28  1  0
 28 29  2  0
 28 30  1  0
 30 31  1  0
 31 32  2  0
 32 33  1  0
 33 34  2  0
 34 35  1  0
 34 36  1  0
 36 37  2  0
 26 38  1  0
 38 39  2  0
 12  8  1  0
 22 13  1  0
 22 18  2  0
 39 23  1  0
 37 31  1  0
M  END
>  <Molecule>  (426) 
CHEMBL2001485

>  <Standard Type>  (426) 
Ki

>  <Standard Relation>  (426) 
>

>  <Standard Value>  (426) 
1584.89

>  <Standard Units>  (426) 
nM

>  <pChEMBL Value>  (426) 
nan

>  <Comment>  (426) 
inactive

>  <Compound Key>  (426) 
SID103904283

>  <Assay>  (426) 
CHEMBL1963742

>  <Assay Description>  (426) 
PUBCHEM_BIOASSAY: Navigating the Kinome. (Class of assay: other) Panel member name: JAK3

>  <BAO Format>  (426) 
assay format

>  <Target>  (426) 
CHEMBL2148

>  <Target Pref. Name>  (426) 
Tyrosine-protein kinase JAK3

>  <Target Organism>  (426) 
Homo sapiens

>  <Target Type>  (426) 
SINGLE PROTEIN

>  <Document>  (426) 
CHEMBL1201862

>  <Source>  (426) 
PubChem BioAssays

>  <Max Phase>  (426) 
0

>  <#Ro5 Violations>  (426) 
2

>  <Molecular Weight>  (426) 
539.67

>  <Ligand Efficiency BEI>  (426) 
nan

>  <Ligand Efficiency LE>  (426) 
nan

>  <Ligand Efficiency LLE>  (426) 
nan

>  <Ligand Efficiency SEI>  (426) 
nan

>  <ALogP>  (426) 
6.01

>  <Assay Organism>  (426) 
nan

>  <Assay Tissue ChEMBL ID>  (426) 
nan

>  <Assay Tissue Name>  (426) 
nan

>  <Assay Cell Type>  (426) 
nan

>  <Assay Subcellular Fraction>  (426) 
nan

>  <Organism Tax ID>  (426) 
9606

>  <BAO Format ID>  (426) 
BAO_0000019

>  <Published Type>  (426) 
nan

>  <Published Relation>  (426) 
nan

>  <Published Value>  (426) 
nan

>  <Published Units>  (426) 
nan

>  <Canonical Smiles>  (426) 
CC(C(=O)N(C)C)n1cc(cn1)c2cnc(N)c3c(csc23)c4ccc(NC(=O)Nc5ccc(C)cc5)cc4

>  <Data Validity Comment>  (426) 
nan

>  <Document Journal>  (426) 
nan

>  <Document Year>  (426) 
nan

>  <SRC ID>  (426) 
7

>  <UO Units>  (426) 
UO_0000065

>  <Potential Duplicate>  (426) 
False

>  <Class>  (426) 
0

$$$$

     RDKit          2D

 18 20  0  0  0  0  0  0  0  0999 V2000
    3.0000   -7.7942    0.0000 C   0  0  0  0  0  0  0  0  0  0  0  0
    3.7500   -6.4952    0.0000 O   0  0  0  0  0  0  0  0  0  0  0  0
    3.0000   -5.1962    0.0000 C   0  0  0  0  0  0  0  0  0  0  0  0
    1.5000   -5.1962    0.0000 C   0  0  0  0  0  0  0  0  0  0  0  0
    0.7500   -3.8971    0.0000 C   0  0  0  0  0  0  0  0  0  0  0  0
    1.5000   -2.5981    0.0000 C   0  0  0  0  0  0  0  0  0  0  0  0
    3.0000   -2.5981    0.0000 C   0  0  0  0  0  0  0  0  0  0  0  0
    3.7500   -3.8971    0.0000 C   0  0  0  0  0  0  0  0  0  0  0  0
    0.7500   -1.2990    0.0000 C   0  0  0  0  0  0  0  0  0  0  0  0
    1.5000    0.0000    0.0000 C   0  0  0  0  0  0  0  0  0  0  0  0
    0.7500    1.2990    0.0000 N   0  0  0  0  0  0  0  0  0  0  0  0
   -0.7500    1.2990    0.0000 C   0  0  0  0  0  0  0  0  0  0  0  0
   -1.7537    2.4138    0.0000 C   0  0  0  0  0  0  0  0  0  0  0  0
   -1.4418    3.8810    0.0000 Br  0  0  0  0  0  0  0  0  0  0  0  0
   -3.1240    1.8037    0.0000 C   0  0  0  0  0  0  0  0  0  0  0  0
   -2.9672    0.3119    0.0000 N   0  0  0  0  0  0  0  0  0  0  0  0
   -1.5000    0.0000    0.0000 N   0  0  0  0  0  0  0  0  0  0  0  0
   -0.7500   -1.2990    0.0000 C   0  0  0  0  0  0  0  0  0  0  0  0
  1  2  1  0
  2  3  1  0
  3  4  2  0
  4  5  1  0
  5  6  2  0
  6  7  1  0
  7  8  2  0
  6  9  1  0
  9 10  1  0
 10 11  2  0
 11 12  1  0
 12 13  2  0
 13 14  1  0
 13 15  1  0
 15 16  2  0
 16 17  1  0
 17 18  1  0
  8  3  1  0
 18  9  2  0
 17 12  1  0
M  END
>  <Molecule>  (427) 
CHEMBL443962

>  <Standard Type>  (427) 
Ki

>  <Standard Relation>  (427) 
>

>  <Standard Value>  (427) 
1584.89

>  <Standard Units>  (427) 
nM

>  <pChEMBL Value>  (427) 
nan

>  <Comment>  (427) 
inactive

>  <Compound Key>  (427) 
SID103904947

>  <Assay>  (427) 
CHEMBL1963742

>  <Assay Description>  (427) 
PUBCHEM_BIOASSAY: Navigating the Kinome. (Class of assay: other) Panel member name: JAK3

>  <BAO Format>  (427) 
assay format

>  <Target>  (427) 
CHEMBL2148

>  <Target Pref. Name>  (427) 
Tyrosine-protein kinase JAK3

>  <Target Organism>  (427) 
Homo sapiens

>  <Target Type>  (427) 
SINGLE PROTEIN

>  <Document>  (427) 
CHEMBL1201862

>  <Source>  (427) 
PubChem BioAssays

>  <Max Phase>  (427) 
0

>  <#Ro5 Violations>  (427) 
0

>  <Molecular Weight>  (427) 
304.15

>  <Ligand Efficiency BEI>  (427) 
nan

>  <Ligand Efficiency LE>  (427) 
nan

>  <Ligand Efficiency LLE>  (427) 
nan

>  <Ligand Efficiency SEI>  (427) 
nan

>  <ALogP>  (427) 
3.17

>  <Assay Organism>  (427) 
nan

>  <Assay Tissue ChEMBL ID>  (427) 
nan

>  <Assay Tissue Name>  (427) 
nan

>  <Assay Cell Type>  (427) 
nan

>  <Assay Subcellular Fraction>  (427) 
nan

>  <Organism Tax ID>  (427) 
9606

>  <BAO Format ID>  (427) 
BAO_0000019

>  <Published Type>  (427) 
nan

>  <Published Relation>  (427) 
nan

>  <Published Value>  (427) 
nan

>  <Published Units>  (427) 
nan

>  <Canonical Smiles>  (427) 
COc1ccc(cc1)c2cnc3c(Br)cnn3c2

>  <Data Validity Comment>  (427) 
nan

>  <Document Journal>  (427) 
nan

>  <Document Year>  (427) 
nan

>  <SRC ID>  (427) 
7

>  <UO Units>  (427) 
UO_0000065

>  <Potential Duplicate>  (427) 
False

>  <Class>  (427) 
0

$$$$

     RDKit          2D

 32 36  0  0  0  0  0  0  0  0999 V2000
   -7.8555   -8.9814    0.0000 C   0  0  0  0  0  0  0  0  0  0  0  0
   -6.4289   -8.5179    0.0000 O   0  0  0  0  0  0  0  0  0  0  0  0
   -6.1170   -7.0506    0.0000 C   0  0  0  0  0  0  0  0  0  0  0  0
   -7.2317   -6.0469    0.0000 C   0  0  0  0  0  0  0  0  0  0  0  0
   -6.9199   -4.5797    0.0000 C   0  0  0  0  0  0  0  0  0  0  0  0
   -5.4933   -4.1162    0.0000 C   0  0  0  0  0  0  0  0  0  0  0  0
   -4.3786   -5.1199    0.0000 C   0  0  0  0  0  0  0  0  0  0  0  0
   -4.6904   -6.5871    0.0000 C   0  0  0  0  0  0  0  0  0  0  0  0
   -2.9520   -4.6564    0.0000 C   0  0  0  0  0  0  0  0  0  0  0  0
   -1.8373   -5.6601    0.0000 O   0  0  0  0  0  0  0  0  0  0  0  0
   -2.6401   -3.1891    0.0000 N   0  0  0  0  0  0  0  0  0  0  0  0
   -1.2135   -2.7256    0.0000 C   0  0  0  0  0  0  0  0  0  0  0  0
    0.0000   -3.6073    0.0000 N   0  0  0  0  0  0  0  0  0  0  0  0
    1.2135   -2.7256    0.0000 N   0  0  0  0  0  0  0  0  0  0  0  0
    0.7500   -1.2990    0.0000 C   0  0  0  0  0  0  0  0  0  0  0  0
    1.5000    0.0000    0.0000 C   0  0  0  0  0  0  0  0  0  0  0  0
    0.7500    1.2990    0.0000 C   0  0  0  0  0  0  0  0  0  0  0  0
   -0.7500    1.2990    0.0000 C   0  0  0  0  0  0  0  0  0  0  0  0
   -1.5000    0.0000    0.0000 C   0  0  0  0  0  0  0  0  0  0  0  0
   -0.7500   -1.2990    0.0000 C   0  0  0  0  0  0  0  0  0  0  0  0
   -1.5000    2.5981    0.0000 C   0  0  0  0  0  0  0  0  0  0  0  0
   -2.9918    2.7549    0.0000 C   0  0  0  0  0  0  0  0  0  0  0  0
   -3.3037    4.2221    0.0000 N   0  0  0  0  0  0  0  0  0  0  0  0
   -4.6740    4.8322    0.0000 C   0  0  0  0  0  0  0  0  0  0  0  0
   -4.8308    6.3240    0.0000 C   0  0  0  0  0  0  0  0  0  0  0  0
   -3.6172    7.2057    0.0000 C   0  0  0  0  0  0  0  0  0  0  0  0
   -3.7740    8.6974    0.0000 C   0  0  0  0  0  0  0  0  0  0  0  0
   -5.1443    9.3075    0.0000 C   0  0  0  0  0  0  0  0  0  0  0  0
   -6.3579    8.4259    0.0000 C   0  0  0  0  0  0  0  0  0  0  0  0
   -6.2011    6.9341    0.0000 C   0  0  0  0  0  0  0  0  0  0  0  0
   -2.0046    4.9721    0.0000 N   0  0  0  0  0  0  0  0  0  0  0  0
   -0.8899    3.9684    0.0000 N   0  0  0  0  0  0  0  0  0  0  0  0
  1  2  1  0
  2  3  1  0
  3  4  2  0
  4  5  1  0
  5  6  2  0
  6  7  1  0
  7  8  2  0
  7  9  1  0
  9 10  2  0
  9 11  1  0
 11 12  1  0
 12 13  2  0
 13 14  1  0
 14 15  1  0
 15 16  2  0
 16 17  1  0
 17 18  2  0
 18 19  1  0
 19 20  2  0
 18 21  1  0
 21 22  2  0
 22 23  1  0
 23 24  1  0
 24 25  1  0
 25 26  2  0
 26 27  1  0
 27 28  2  0
 28 29  1  0
 29 30  2  0
 23 31  1  0
 31 32  2  0
  8  3  1  0
 20 12  1  0
 20 15  1  0
 32 21  1  0
 30 25  1  0
M  END
>  <Molecule>  (428) 
CHEMBL1980435

>  <Standard Type>  (428) 
Ki

>  <Standard Relation>  (428) 
>

>  <Standard Value>  (428) 
5011.87

>  <Standard Units>  (428) 
nM

>  <pChEMBL Value>  (428) 
nan

>  <Comment>  (428) 
inactive

>  <Compound Key>  (428) 
SID103904523

>  <Assay>  (428) 
CHEMBL1963742

>  <Assay Description>  (428) 
PUBCHEM_BIOASSAY: Navigating the Kinome. (Class of assay: other) Panel member name: JAK3

>  <BAO Format>  (428) 
assay format

>  <Target>  (428) 
CHEMBL2148

>  <Target Pref. Name>  (428) 
Tyrosine-protein kinase JAK3

>  <Target Organism>  (428) 
Homo sapiens

>  <Target Type>  (428) 
SINGLE PROTEIN

>  <Document>  (428) 
CHEMBL1201862

>  <Source>  (428) 
PubChem BioAssays

>  <Max Phase>  (428) 
0

>  <#Ro5 Violations>  (428) 
0

>  <Molecular Weight>  (428) 
424.46

>  <Ligand Efficiency BEI>  (428) 
nan

>  <Ligand Efficiency LE>  (428) 
nan

>  <Ligand Efficiency LLE>  (428) 
nan

>  <Ligand Efficiency SEI>  (428) 
nan

>  <ALogP>  (428) 
4.13

>  <Assay Organism>  (428) 
nan

>  <Assay Tissue ChEMBL ID>  (428) 
nan

>  <Assay Tissue Name>  (428) 
nan

>  <Assay Cell Type>  (428) 
nan

>  <Assay Subcellular Fraction>  (428) 
nan

>  <Organism Tax ID>  (428) 
9606

>  <BAO Format ID>  (428) 
BAO_0000019

>  <Published Type>  (428) 
nan

>  <Published Relation>  (428) 
nan

>  <Published Value>  (428) 
nan

>  <Published Units>  (428) 
nan

>  <Canonical Smiles>  (428) 
COc1cccc(c1)C(=O)Nc2n[nH]c3ccc(cc23)c4cn(Cc5ccccc5)nn4

>  <Data Validity Comment>  (428) 
nan

>  <Document Journal>  (428) 
nan

>  <Document Year>  (428) 
nan

>  <SRC ID>  (428) 
7

>  <UO Units>  (428) 
UO_0000065

>  <Potential Duplicate>  (428) 
False

>  <Class>  (428) 
0

$$$$

     RDKit          2D

 23 25  0  0  0  0  0  0  0  0999 V2000
    2.2484    6.9199    0.0000 C   0  0  0  0  0  0  0  0  0  0  0  0
    1.7849    5.4933    0.0000 C   0  0  0  0  0  0  0  0  0  0  0  0
    2.7886    4.3786    0.0000 C   0  0  0  0  0  0  0  0  0  0  0  0
    2.3250    2.9520    0.0000 C   0  0  0  0  0  0  0  0  0  0  0  0
    0.8578    2.6401    0.0000 C   0  0  0  0  0  0  0  0  0  0  0  0
   -0.1459    3.7548    0.0000 C   0  0  0  0  0  0  0  0  0  0  0  0
    0.3177    5.1814    0.0000 C   0  0  0  0  0  0  0  0  0  0  0  0
    0.3943    1.2135    0.0000 C   0  0  0  0  0  0  0  0  0  0  0  0
    1.2760    0.0000    0.0000 C   0  0  0  0  0  0  0  0  0  0  0  0
    0.3943   -1.2135    0.0000 C   0  0  0  0  0  0  0  0  0  0  0  0
    0.7062   -2.6807    0.0000 C   0  0  0  0  0  0  0  0  0  0  0  0
    2.1328   -3.1443    0.0000 N   0  0  0  0  0  0  0  0  0  0  0  0
    2.4446   -4.6115    0.0000 C   0  0  0  0  0  0  0  0  0  0  0  0
    3.8712   -5.0750    0.0000 C   0  0  0  0  0  0  0  0  0  0  0  0
    4.1831   -6.5422    0.0000 N   0  0  0  0  0  0  0  0  0  0  0  0
   -0.4086   -3.6844    0.0000 C   0  0  0  0  0  0  0  0  0  0  0  0
   -1.8351   -3.2209    0.0000 C   0  0  0  0  0  0  0  0  0  0  0  0
   -2.1470   -1.7537    0.0000 C   0  0  0  0  0  0  0  0  0  0  0  0
   -3.5736   -1.2902    0.0000 C   0  0  0  0  0  0  0  0  0  0  0  0
   -3.8855    0.1771    0.0000 O   0  0  0  0  0  0  0  0  0  0  0  0
   -4.6883   -2.2939    0.0000 N   0  0  0  0  0  0  0  0  0  0  0  0
   -1.0323   -0.7500    0.0000 C   0  0  0  0  0  0  0  0  0  0  0  0
   -1.0323    0.7500    0.0000 N   0  0  0  0  0  0  0  0  0  0  0  0
  1  2  1  0
  2  3  2  0
  3  4  1  0
  4  5  2  0
  5  6  1  0
  6  7  2  0
  5  8  1  0
  8  9  2  0
  9 10  1  0
 10 11  2  0
 11 12  1  0
 12 13  1  0
 13 14  1  0
 14 15  1  0
 11 16  1  0
 16 17  2  0
 17 18  1  0
 18 19  1  0
 19 20  2  0
 19 21  1  0
 18 22  2  0
 22 23  1  0
  7  2  1  0
 23  8  1  0
 22 10  1  0
M  END
>  <Molecule>  (429) 
CHEMBL1996048

>  <Standard Type>  (429) 
Ki

>  <Standard Relation>  (429) 
>

>  <Standard Value>  (429) 
5011.87

>  <Standard Units>  (429) 
nM

>  <pChEMBL Value>  (429) 
nan

>  <Comment>  (429) 
inactive

>  <Compound Key>  (429) 
SID103904983

>  <Assay>  (429) 
CHEMBL1963742

>  <Assay Description>  (429) 
PUBCHEM_BIOASSAY: Navigating the Kinome. (Class of assay: other) Panel member name: JAK3

>  <BAO Format>  (429) 
assay format

>  <Target>  (429) 
CHEMBL2148

>  <Target Pref. Name>  (429) 
Tyrosine-protein kinase JAK3

>  <Target Organism>  (429) 
Homo sapiens

>  <Target Type>  (429) 
SINGLE PROTEIN

>  <Document>  (429) 
CHEMBL1201862

>  <Source>  (429) 
PubChem BioAssays

>  <Max Phase>  (429) 
0

>  <#Ro5 Violations>  (429) 
0

>  <Molecular Weight>  (429) 
308.39

>  <Ligand Efficiency BEI>  (429) 
nan

>  <Ligand Efficiency LE>  (429) 
nan

>  <Ligand Efficiency LLE>  (429) 
nan

>  <Ligand Efficiency SEI>  (429) 
nan

>  <ALogP>  (429) 
2.61

>  <Assay Organism>  (429) 
nan

>  <Assay Tissue ChEMBL ID>  (429) 
nan

>  <Assay Tissue Name>  (429) 
nan

>  <Assay Cell Type>  (429) 
nan

>  <Assay Subcellular Fraction>  (429) 
nan

>  <Organism Tax ID>  (429) 
9606

>  <BAO Format ID>  (429) 
BAO_0000019

>  <Published Type>  (429) 
nan

>  <Published Relation>  (429) 
nan

>  <Published Value>  (429) 
nan

>  <Published Units>  (429) 
nan

>  <Canonical Smiles>  (429) 
Cc1ccc(cc1)c2cc3c(NCCN)ccc(C(=O)N)c3[nH]2

>  <Data Validity Comment>  (429) 
nan

>  <Document Journal>  (429) 
nan

>  <Document Year>  (429) 
nan

>  <SRC ID>  (429) 
7

>  <UO Units>  (429) 
UO_0000065

>  <Potential Duplicate>  (429) 
False

>  <Class>  (429) 
0

$$$$

     RDKit          2D

 23 26  0  0  0  0  0  0  0  0999 V2000
    3.7500   -1.2990    0.0000 O   0  0  0  0  0  0  0  0  0  0  0  0
    3.0000    0.0000    0.0000 N   0  0  0  0  0  0  0  0  0  0  0  0
    3.7500    1.2990    0.0000 O   0  0  0  0  0  0  0  0  0  0  0  0
    1.5000    0.0000    0.0000 C   0  0  0  0  0  0  0  0  0  0  0  0
    0.7500   -1.2990    0.0000 C   0  0  0  0  0  0  0  0  0  0  0  0
   -0.7500   -1.2990    0.0000 C   0  0  0  0  0  0  0  0  0  0  0  0
   -1.5000    0.0000    0.0000 C   0  0  0  0  0  0  0  0  0  0  0  0
   -2.9672    0.3119    0.0000 N   0  0  0  0  0  0  0  0  0  0  0  0
   -4.1807   -0.5698    0.0000 C   0  0  0  0  0  0  0  0  0  0  0  0
   -4.0240   -2.0616    0.0000 O   0  0  0  0  0  0  0  0  0  0  0  0
   -5.5511    0.0403    0.0000 C   0  0  0  0  0  0  0  0  0  0  0  0
   -6.7646   -0.8414    0.0000 C   0  0  0  0  0  0  0  0  0  0  0  0
   -6.6078   -2.3332    0.0000 Br  0  0  0  0  0  0  0  0  0  0  0  0
   -8.1349   -0.2313    0.0000 C   0  0  0  0  0  0  0  0  0  0  0  0
   -8.2917    1.2605    0.0000 C   0  0  0  0  0  0  0  0  0  0  0  0
   -7.0782    2.1422    0.0000 C   0  0  0  0  0  0  0  0  0  0  0  0
   -5.7079    1.5321    0.0000 C   0  0  0  0  0  0  0  0  0  0  0  0
   -4.4943    2.4138    0.0000 N   0  0  0  0  0  0  0  0  0  0  0  0
   -3.1240    1.8037    0.0000 C   0  0  0  0  0  0  0  0  0  0  0  0
   -1.7537    2.4138    0.0000 C   0  0  0  0  0  0  0  0  0  0  0  0
   -1.4418    3.8810    0.0000 O   0  0  0  0  0  0  0  0  0  0  0  0
   -0.7500    1.2990    0.0000 C   0  0  0  0  0  0  0  0  0  0  0  0
    0.7500    1.2990    0.0000 C   0  0  0  0  0  0  0  0  0  0  0  0
  1  2  1  0
  2  3  2  0
  2  4  1  0
  4  5  2  0
  5  6  1  0
  6  7  2  0
  7  8  1  0
  8  9  1  0
  9 10  2  0
  9 11  1  0
 11 12  2  0
 12 13  1  0
 12 14  1  0
 14 15  2  0
 15 16  1  0
 16 17  2  0
 17 18  1  0
 18 19  2  0
 19 20  1  0
 20 21  2  0
 20 22  1  0
 22 23  2  0
 23  4  1  0
 22  7  1  0
 19  8  1  0
 17 11  1  0
M  CHG  2   1  -1   2   1
M  END
>  <Molecule>  (430) 
CHEMBL1976158

>  <Standard Type>  (430) 
Ki

>  <Standard Relation>  (430) 
>

>  <Standard Value>  (430) 
2511.89

>  <Standard Units>  (430) 
nM

>  <pChEMBL Value>  (430) 
nan

>  <Comment>  (430) 
inactive

>  <Compound Key>  (430) 
SID103905454

>  <Assay>  (430) 
CHEMBL1963742

>  <Assay Description>  (430) 
PUBCHEM_BIOASSAY: Navigating the Kinome. (Class of assay: other) Panel member name: JAK3

>  <BAO Format>  (430) 
assay format

>  <Target>  (430) 
CHEMBL2148

>  <Target Pref. Name>  (430) 
Tyrosine-protein kinase JAK3

>  <Target Organism>  (430) 
Homo sapiens

>  <Target Type>  (430) 
SINGLE PROTEIN

>  <Document>  (430) 
CHEMBL1201862

>  <Source>  (430) 
PubChem BioAssays

>  <Max Phase>  (430) 
0

>  <#Ro5 Violations>  (430) 
0

>  <Molecular Weight>  (430) 
372.13

>  <Ligand Efficiency BEI>  (430) 
nan

>  <Ligand Efficiency LE>  (430) 
nan

>  <Ligand Efficiency LLE>  (430) 
nan

>  <Ligand Efficiency SEI>  (430) 
nan

>  <ALogP>  (430) 
2.6

>  <Assay Organism>  (430) 
nan

>  <Assay Tissue ChEMBL ID>  (430) 
nan

>  <Assay Tissue Name>  (430) 
nan

>  <Assay Cell Type>  (430) 
nan

>  <Assay Subcellular Fraction>  (430) 
nan

>  <Organism Tax ID>  (430) 
9606

>  <BAO Format ID>  (430) 
BAO_0000019

>  <Published Type>  (430) 
nan

>  <Published Relation>  (430) 
nan

>  <Published Value>  (430) 
nan

>  <Published Units>  (430) 
nan

>  <Canonical Smiles>  (430) 
[O-][N+](=O)c1ccc2N3C(=O)c4c(Br)cccc4N=C3C(=O)c2c1

>  <Data Validity Comment>  (430) 
nan

>  <Document Journal>  (430) 
nan

>  <Document Year>  (430) 
nan

>  <SRC ID>  (430) 
7

>  <UO Units>  (430) 
UO_0000065

>  <Potential Duplicate>  (430) 
False

>  <Class>  (430) 
0

$$$$

     RDKit          2D

 29 31  0  0  0  0  0  0  0  0999 V2000
    3.0000    0.0000    0.0000 C   0  0  0  0  0  0  0  0  0  0  0  0
    1.5000    0.0000    0.0000 C   0  0  0  0  0  0  0  0  0  0  0  0
    0.7500   -1.2990    0.0000 C   0  0  0  0  0  0  0  0  0  0  0  0
   -0.7500   -1.2990    0.0000 C   0  0  0  0  0  0  0  0  0  0  0  0
   -1.5000   -2.5981    0.0000 O   0  0  0  0  0  0  0  0  0  0  0  0
   -1.5000    0.0000    0.0000 N   0  0  0  0  0  0  0  0  0  0  0  0
   -0.7500    1.2990    0.0000 N   0  0  0  0  0  0  0  0  0  0  0  0
    0.7500    1.2990    0.0000 C   0  0  0  0  0  0  0  0  0  0  0  0
    1.5000    2.5981    0.0000 C   0  0  0  0  0  0  0  0  0  0  0  0
    3.0000    2.5981    0.0000 C   0  0  0  0  0  0  0  0  0  0  0  0
    3.7500    3.8971    0.0000 C   0  0  0  0  0  0  0  0  0  0  0  0
    3.0000    5.1962    0.0000 C   0  0  0  0  0  0  0  0  0  0  0  0
    3.7500    6.4952    0.0000 N   0  0  0  0  0  0  0  0  0  0  0  0
    5.2500    6.4952    0.0000 C   0  0  0  0  0  0  0  0  0  0  0  0
    6.0000    5.1962    0.0000 O   0  0  0  0  0  0  0  0  0  0  0  0
    6.0000    7.7942    0.0000 N   0  0  0  0  0  0  0  0  0  0  0  0
    7.5000    7.7942    0.0000 C   0  0  0  0  0  0  0  0  0  0  0  0
    8.2500    6.4952    0.0000 C   0  0  0  0  0  0  0  0  0  0  0  0
    9.7500    6.4952    0.0000 C   0  0  0  0  0  0  0  0  0  0  0  0
   10.5000    7.7942    0.0000 C   0  0  0  0  0  0  0  0  0  0  0  0
    9.7500    9.0933    0.0000 C   0  0  0  0  0  0  0  0  0  0  0  0
    8.2500    9.0933    0.0000 C   0  0  0  0  0  0  0  0  0  0  0  0
    7.5000   10.3923    0.0000 F   0  0  0  0  0  0  0  0  0  0  0  0
   10.5000    5.1962    0.0000 C   0  0  0  0  0  0  0  0  0  0  0  0
   11.2500    3.8971    0.0000 F   0  0  0  0  0  0  0  0  0  0  0  0
    9.2010    4.4462    0.0000 F   0  0  0  0  0  0  0  0  0  0  0  0
   11.7990    5.9462    0.0000 F   0  0  0  0  0  0  0  0  0  0  0  0
    1.5000    5.1962    0.0000 C   0  0  0  0  0  0  0  0  0  0  0  0
    0.7500    3.8971    0.0000 C   0  0  0  0  0  0  0  0  0  0  0  0
  1  2  1  0
  2  3  2  0
  3  4  1  0
  4  5  2  0
  4  6  1  0
  6  7  1  0
  7  8  2  0
  8  9  1  0
  9 10  2  0
 10 11  1  0
 11 12  2  0
 12 13  1  0
 13 14  1  0
 14 15  2  0
 14 16  1  0
 16 17  1  0
 17 18  2  0
 18 19  1  0
 19 20  2  0
 20 21  1  0
 21 22  2  0
 22 23  1  0
 19 24  1  0
 24 25  1  0
 24 26  1  0
 24 27  1  0
 12 28  1  0
 28 29  2  0
  8  2  1  0
 29  9  1  0
 22 17  1  0
M  END
>  <Molecule>  (431) 
CHEMBL1965033

>  <Standard Type>  (431) 
Ki

>  <Standard Relation>  (431) 
>

>  <Standard Value>  (431) 
5011.87

>  <Standard Units>  (431) 
nM

>  <pChEMBL Value>  (431) 
nan

>  <Comment>  (431) 
inactive

>  <Compound Key>  (431) 
SID103904457

>  <Assay>  (431) 
CHEMBL1963742

>  <Assay Description>  (431) 
PUBCHEM_BIOASSAY: Navigating the Kinome. (Class of assay: other) Panel member name: JAK3

>  <BAO Format>  (431) 
assay format

>  <Target>  (431) 
CHEMBL2148

>  <Target Pref. Name>  (431) 
Tyrosine-protein kinase JAK3

>  <Target Organism>  (431) 
Homo sapiens

>  <Target Type>  (431) 
SINGLE PROTEIN

>  <Document>  (431) 
CHEMBL1201862

>  <Source>  (431) 
PubChem BioAssays

>  <Max Phase>  (431) 
0

>  <#Ro5 Violations>  (431) 
0

>  <Molecular Weight>  (431) 
406.34

>  <Ligand Efficiency BEI>  (431) 
nan

>  <Ligand Efficiency LE>  (431) 
nan

>  <Ligand Efficiency LLE>  (431) 
nan

>  <Ligand Efficiency SEI>  (431) 
nan

>  <ALogP>  (431) 
4.55

>  <Assay Organism>  (431) 
nan

>  <Assay Tissue ChEMBL ID>  (431) 
nan

>  <Assay Tissue Name>  (431) 
nan

>  <Assay Cell Type>  (431) 
nan

>  <Assay Subcellular Fraction>  (431) 
nan

>  <Organism Tax ID>  (431) 
9606

>  <BAO Format ID>  (431) 
BAO_0000019

>  <Published Type>  (431) 
nan

>  <Published Relation>  (431) 
nan

>  <Published Value>  (431) 
nan

>  <Published Units>  (431) 
nan

>  <Canonical Smiles>  (431) 
CC1=CC(=O)NN=C1c2ccc(NC(=O)Nc3cc(ccc3F)C(F)(F)F)cc2

>  <Data Validity Comment>  (431) 
nan

>  <Document Journal>  (431) 
nan

>  <Document Year>  (431) 
nan

>  <SRC ID>  (431) 
7

>  <UO Units>  (431) 
UO_0000065

>  <Potential Duplicate>  (431) 
False

>  <Class>  (431) 
0

$$$$

     RDKit          2D

 23 25  0  0  0  0  0  0  0  0999 V2000
   -6.0953    1.9404    0.0000 C   0  0  0  0  0  0  0  0  0  0  0  0
   -7.0990    0.8256    0.0000 C   0  0  0  0  0  0  0  0  0  0  0  0
   -8.1027   -0.2891    0.0000 C   0  0  0  0  0  0  0  0  0  0  0  0
   -8.2137    1.8293    0.0000 C   0  0  0  0  0  0  0  0  0  0  0  0
   -9.6403    1.3658    0.0000 N   0  0  0  0  0  0  0  0  0  0  0  0
   -5.9843   -0.1781    0.0000 C   0  0  0  0  0  0  0  0  0  0  0  0
   -6.2961   -1.6453    0.0000 N   0  0  0  0  0  0  0  0  0  0  0  0
   -5.1814   -2.6490    0.0000 C   0  0  0  0  0  0  0  0  0  0  0  0
   -3.7548   -2.1855    0.0000 C   0  0  0  0  0  0  0  0  0  0  0  0
   -2.6401   -3.1891    0.0000 C   0  0  0  0  0  0  0  0  0  0  0  0
   -2.9520   -4.6564    0.0000 C   0  0  0  0  0  0  0  0  0  0  0  0
   -4.3786   -5.1199    0.0000 C   0  0  0  0  0  0  0  0  0  0  0  0
   -4.6904   -6.5871    0.0000 Cl  0  0  0  0  0  0  0  0  0  0  0  0
   -5.4933   -4.1162    0.0000 N   0  0  0  0  0  0  0  0  0  0  0  0
   -1.2135   -2.7256    0.0000 C   0  0  0  0  0  0  0  0  0  0  0  0
    0.0000   -3.6073    0.0000 C   0  0  0  0  0  0  0  0  0  0  0  0
    1.2135   -2.7256    0.0000 N   0  0  0  0  0  0  0  0  0  0  0  0
    0.7500   -1.2990    0.0000 C   0  0  0  0  0  0  0  0  0  0  0  0
    1.5000    0.0000    0.0000 N   0  0  0  0  0  0  0  0  0  0  0  0
    0.7500    1.2990    0.0000 C   0  0  0  0  0  0  0  0  0  0  0  0
   -0.7500    1.2990    0.0000 C   0  0  0  0  0  0  0  0  0  0  0  0
   -1.5000    0.0000    0.0000 C   0  0  0  0  0  0  0  0  0  0  0  0
   -0.7500   -1.2990    0.0000 C   0  0  0  0  0  0  0  0  0  0  0  0
  1  2  1  0
  2  3  1  0
  2  4  1  0
  4  5  1  0
  2  6  1  0
  6  7  1  0
  7  8  1  0
  8  9  2  0
  9 10  1  0
 10 11  2  0
 11 12  1  0
 12 13  1  0
 12 14  2  0
 10 15  1  0
 15 16  2  0
 16 17  1  0
 17 18  1  0
 18 19  2  0
 19 20  1  0
 20 21  2  0
 21 22  1  0
 22 23  2  0
 14  8  1  0
 23 15  1  0
 23 18  1  0
M  END
>  <Molecule>  (432) 
CHEMBL1985723

>  <Standard Type>  (432) 
Ki

>  <Standard Relation>  (432) 
=

>  <Standard Value>  (432) 
501.19

>  <Standard Units>  (432) 
nM

>  <pChEMBL Value>  (432) 
6.3

>  <Comment>  (432) 
active

>  <Compound Key>  (432) 
SID103904218

>  <Assay>  (432) 
CHEMBL1963742

>  <Assay Description>  (432) 
PUBCHEM_BIOASSAY: Navigating the Kinome. (Class of assay: other) Panel member name: JAK3

>  <BAO Format>  (432) 
assay format

>  <Target>  (432) 
CHEMBL2148

>  <Target Pref. Name>  (432) 
Tyrosine-protein kinase JAK3

>  <Target Organism>  (432) 
Homo sapiens

>  <Target Type>  (432) 
SINGLE PROTEIN

>  <Document>  (432) 
CHEMBL1201862

>  <Source>  (432) 
PubChem BioAssays

>  <Max Phase>  (432) 
0

>  <#Ro5 Violations>  (432) 
0

>  <Molecular Weight>  (432) 
329.84

>  <Ligand Efficiency BEI>  (432) 
nan

>  <Ligand Efficiency LE>  (432) 
nan

>  <Ligand Efficiency LLE>  (432) 
nan

>  <Ligand Efficiency SEI>  (432) 
nan

>  <ALogP>  (432) 
3.68

>  <Assay Organism>  (432) 
nan

>  <Assay Tissue ChEMBL ID>  (432) 
nan

>  <Assay Tissue Name>  (432) 
nan

>  <Assay Cell Type>  (432) 
nan

>  <Assay Subcellular Fraction>  (432) 
nan

>  <Organism Tax ID>  (432) 
9606

>  <BAO Format ID>  (432) 
BAO_0000019

>  <Published Type>  (432) 
nan

>  <Published Relation>  (432) 
nan

>  <Published Value>  (432) 
nan

>  <Published Units>  (432) 
nan

>  <Canonical Smiles>  (432) 
CC(C)(CN)CNc1cc(cc(Cl)n1)c2c[nH]c3ncccc23

>  <Data Validity Comment>  (432) 
nan

>  <Document Journal>  (432) 
nan

>  <Document Year>  (432) 
nan

>  <SRC ID>  (432) 
7

>  <UO Units>  (432) 
UO_0000065

>  <Potential Duplicate>  (432) 
False

>  <Class>  (432) 
1

$$$$

     RDKit          2D

 21 23  0  0  0  0  0  0  0  0999 V2000
   -3.5736    1.2902    0.0000 C   0  0  0  0  0  0  0  0  0  0  0  0
   -2.1470    1.7537    0.0000 C   0  0  0  0  0  0  0  0  0  0  0  0
   -1.8351    3.2209    0.0000 C   0  0  0  0  0  0  0  0  0  0  0  0
   -0.4086    3.6844    0.0000 C   0  0  0  0  0  0  0  0  0  0  0  0
   -0.0967    5.1517    0.0000 O   0  0  0  0  0  0  0  0  0  0  0  0
    0.7062    2.6807    0.0000 N   0  0  0  0  0  0  0  0  0  0  0  0
    0.3943    1.2135    0.0000 C   0  0  0  0  0  0  0  0  0  0  0  0
    1.2760    0.0000    0.0000 N   0  0  0  0  0  0  0  0  0  0  0  0
    0.3943   -1.2135    0.0000 N   0  0  0  0  0  0  0  0  0  0  0  0
   -1.0323   -0.7500    0.0000 C   0  0  0  0  0  0  0  0  0  0  0  0
   -2.2458   -1.6317    0.0000 C   0  0  0  0  0  0  0  0  0  0  0  0
   -3.6161   -1.0216    0.0000 C   0  0  0  0  0  0  0  0  0  0  0  0
   -4.8297   -1.9033    0.0000 C   0  0  0  0  0  0  0  0  0  0  0  0
   -4.6729   -3.3950    0.0000 C   0  0  0  0  0  0  0  0  0  0  0  0
   -3.3025   -4.0051    0.0000 C   0  0  0  0  0  0  0  0  0  0  0  0
   -2.0890   -3.1235    0.0000 C   0  0  0  0  0  0  0  0  0  0  0  0
   -3.1458   -5.4969    0.0000 C   0  0  0  0  0  0  0  0  0  0  0  0
   -2.9890   -6.9887    0.0000 F   0  0  0  0  0  0  0  0  0  0  0  0
   -4.6375   -5.6537    0.0000 F   0  0  0  0  0  0  0  0  0  0  0  0
   -1.6540   -5.3401    0.0000 F   0  0  0  0  0  0  0  0  0  0  0  0
   -1.0323    0.7500    0.0000 C   0  0  0  0  0  0  0  0  0  0  0  0
  1  2  1  0
  2  3  2  0
  3  4  1  0
  4  5  2  0
  4  6  1  0
  6  7  1  0
  7  8  1  0
  8  9  1  0
  9 10  2  0
 10 11  1  0
 11 12  2  0
 12 13  1  0
 13 14  2  0
 14 15  1  0
 15 16  2  0
 15 17  1  0
 17 18  1  0
 17 19  1  0
 17 20  1  0
 10 21  1  0
 21  2  1  0
 21  7  2  0
 16 11  1  0
M  END
>  <Molecule>  (433) 
CHEMBL1991377

>  <Standard Type>  (433) 
Ki

>  <Standard Relation>  (433) 
>

>  <Standard Value>  (433) 
5011.87

>  <Standard Units>  (433) 
nM

>  <pChEMBL Value>  (433) 
nan

>  <Comment>  (433) 
inactive

>  <Compound Key>  (433) 
SID103905334

>  <Assay>  (433) 
CHEMBL1963742

>  <Assay Description>  (433) 
PUBCHEM_BIOASSAY: Navigating the Kinome. (Class of assay: other) Panel member name: JAK3

>  <BAO Format>  (433) 
assay format

>  <Target>  (433) 
CHEMBL2148

>  <Target Pref. Name>  (433) 
Tyrosine-protein kinase JAK3

>  <Target Organism>  (433) 
Homo sapiens

>  <Target Type>  (433) 
SINGLE PROTEIN

>  <Document>  (433) 
CHEMBL1201862

>  <Source>  (433) 
PubChem BioAssays

>  <Max Phase>  (433) 
0

>  <#Ro5 Violations>  (433) 
0

>  <Molecular Weight>  (433) 
293.25

>  <Ligand Efficiency BEI>  (433) 
nan

>  <Ligand Efficiency LE>  (433) 
nan

>  <Ligand Efficiency LLE>  (433) 
nan

>  <Ligand Efficiency SEI>  (433) 
nan

>  <ALogP>  (433) 
3.25

>  <Assay Organism>  (433) 
nan

>  <Assay Tissue ChEMBL ID>  (433) 
nan

>  <Assay Tissue Name>  (433) 
nan

>  <Assay Cell Type>  (433) 
nan

>  <Assay Subcellular Fraction>  (433) 
nan

>  <Organism Tax ID>  (433) 
9606

>  <BAO Format ID>  (433) 
BAO_0000019

>  <Published Type>  (433) 
nan

>  <Published Relation>  (433) 
nan

>  <Published Value>  (433) 
nan

>  <Published Units>  (433) 
nan

>  <Canonical Smiles>  (433) 
CC1=CC(=O)Nc2[nH]nc(c3cccc(c3)C(F)(F)F)c12

>  <Data Validity Comment>  (433) 
nan

>  <Document Journal>  (433) 
nan

>  <Document Year>  (433) 
nan

>  <SRC ID>  (433) 
7

>  <UO Units>  (433) 
UO_0000065

>  <Potential Duplicate>  (433) 
False

>  <Class>  (433) 
0

$$$$

     RDKit          2D

 29 32  0  0  0  0  0  0  0  0999 V2000
  -10.5000  -12.9904    0.0000 C   0  0  0  0  0  0  0  0  0  0  0  0
   -9.7500  -11.6913    0.0000 C   0  0  0  0  0  0  0  0  0  0  0  0
  -10.5000  -10.3923    0.0000 C   0  0  0  0  0  0  0  0  0  0  0  0
   -9.7500   -9.0933    0.0000 C   0  0  0  0  0  0  0  0  0  0  0  0
   -8.2500   -9.0933    0.0000 C   0  0  0  0  0  0  0  0  0  0  0  0
   -7.5000   -7.7942    0.0000 F   0  0  0  0  0  0  0  0  0  0  0  0
   -7.5000  -10.3923    0.0000 C   0  0  0  0  0  0  0  0  0  0  0  0
   -6.0000  -10.3923    0.0000 N   0  0  0  0  0  0  0  0  0  0  0  0
   -5.2500   -9.0933    0.0000 C   0  0  0  0  0  0  0  0  0  0  0  0
   -6.0000   -7.7942    0.0000 O   0  0  0  0  0  0  0  0  0  0  0  0
   -3.7500   -9.0933    0.0000 N   0  0  0  0  0  0  0  0  0  0  0  0
   -3.0000   -7.7942    0.0000 C   0  0  0  0  0  0  0  0  0  0  0  0
   -1.5000   -7.7942    0.0000 C   0  0  0  0  0  0  0  0  0  0  0  0
   -0.7500   -6.4952    0.0000 C   0  0  0  0  0  0  0  0  0  0  0  0
   -1.5000   -5.1962    0.0000 C   0  0  0  0  0  0  0  0  0  0  0  0
   -3.0000   -5.1962    0.0000 C   0  0  0  0  0  0  0  0  0  0  0  0
   -3.7500   -6.4952    0.0000 C   0  0  0  0  0  0  0  0  0  0  0  0
   -0.7500   -3.8971    0.0000 C   0  0  0  0  0  0  0  0  0  0  0  0
    0.7500   -3.8971    0.0000 C   0  0  0  0  0  0  0  0  0  0  0  0
    1.5000   -2.5981    0.0000 C   0  0  0  0  0  0  0  0  0  0  0  0
    0.7500   -1.2990    0.0000 C   0  0  0  0  0  0  0  0  0  0  0  0
    1.5000    0.0000    0.0000 N   0  0  0  0  0  0  0  0  0  0  0  0
    0.7500    1.2990    0.0000 C   0  0  0  0  0  0  0  0  0  0  0  0
   -0.7500    1.2990    0.0000 C   0  0  0  0  0  0  0  0  0  0  0  0
   -1.5000    0.0000    0.0000 N   0  0  0  0  0  0  0  0  0  0  0  0
   -0.7500   -1.2990    0.0000 C   0  0  0  0  0  0  0  0  0  0  0  0
   -1.5000   -2.5981    0.0000 C   0  0  0  0  0  0  0  0  0  0  0  0
   -3.0000   -2.5981    0.0000 N   0  0  0  0  0  0  0  0  0  0  0  0
   -8.2500  -11.6913    0.0000 C   0  0  0  0  0  0  0  0  0  0  0  0
  1  2  1  0
  2  3  2  0
  3  4  1  0
  4  5  2  0
  5  6  1  0
  5  7  1  0
  7  8  1  0
  8  9  1  0
  9 10  2  0
  9 11  1  0
 11 12  1  0
 12 13  2  0
 13 14  1  0
 14 15  2  0
 15 16  1  0
 16 17  2  0
 15 18  1  0
 18 19  2  0
 19 20  1  0
 20 21  2  0
 21 22  1  0
 22 23  2  0
 23 24  1  0
 24 25  2  0
 25 26  1  0
 26 27  2  0
 27 28  1  0
  7 29  2  0
 29  2  1  0
 17 12  1  0
 27 18  1  0
 26 21  1  0
M  END
>  <Molecule>  (434) 
CHEMBL1971649

>  <Standard Type>  (434) 
Ki

>  <Standard Relation>  (434) 
>

>  <Standard Value>  (434) 
1584.89

>  <Standard Units>  (434) 
nM

>  <pChEMBL Value>  (434) 
nan

>  <Comment>  (434) 
inactive

>  <Compound Key>  (434) 
SID103904350

>  <Assay>  (434) 
CHEMBL1963742

>  <Assay Description>  (434) 
PUBCHEM_BIOASSAY: Navigating the Kinome. (Class of assay: other) Panel member name: JAK3

>  <BAO Format>  (434) 
assay format

>  <Target>  (434) 
CHEMBL2148

>  <Target Pref. Name>  (434) 
Tyrosine-protein kinase JAK3

>  <Target Organism>  (434) 
Homo sapiens

>  <Target Type>  (434) 
SINGLE PROTEIN

>  <Document>  (434) 
CHEMBL1201862

>  <Source>  (434) 
PubChem BioAssays

>  <Max Phase>  (434) 
0

>  <#Ro5 Violations>  (434) 
0

>  <Molecular Weight>  (434) 
387.42

>  <Ligand Efficiency BEI>  (434) 
nan

>  <Ligand Efficiency LE>  (434) 
nan

>  <Ligand Efficiency LLE>  (434) 
nan

>  <Ligand Efficiency SEI>  (434) 
nan

>  <ALogP>  (434) 
4.97

>  <Assay Organism>  (434) 
nan

>  <Assay Tissue ChEMBL ID>  (434) 
nan

>  <Assay Tissue Name>  (434) 
nan

>  <Assay Cell Type>  (434) 
nan

>  <Assay Subcellular Fraction>  (434) 
nan

>  <Organism Tax ID>  (434) 
9606

>  <BAO Format ID>  (434) 
BAO_0000019

>  <Published Type>  (434) 
nan

>  <Published Relation>  (434) 
nan

>  <Published Value>  (434) 
nan

>  <Published Units>  (434) 
nan

>  <Canonical Smiles>  (434) 
Cc1ccc(F)c(NC(=O)Nc2ccc(cc2)c3ccc4nccnc4c3N)c1

>  <Data Validity Comment>  (434) 
nan

>  <Document Journal>  (434) 
nan

>  <Document Year>  (434) 
nan

>  <SRC ID>  (434) 
7

>  <UO Units>  (434) 
UO_0000065

>  <Potential Duplicate>  (434) 
False

>  <Class>  (434) 
0

$$$$

     RDKit          2D

 25 27  0  0  0  0  0  0  0  0999 V2000
    3.0000   -5.1962    0.0000 N   0  0  0  0  0  0  0  0  0  0  0  0
    1.5000   -5.1962    0.0000 C   0  0  0  0  0  0  0  0  0  0  0  0
    0.7500   -3.8971    0.0000 C   0  0  0  0  0  0  0  0  0  0  0  0
    1.5000   -2.5981    0.0000 O   0  0  0  0  0  0  0  0  0  0  0  0
    0.7500   -1.2990    0.0000 C   0  0  0  0  0  0  0  0  0  0  0  0
    1.5000    0.0000    0.0000 C   0  0  0  0  0  0  0  0  0  0  0  0
    0.7500    1.2990    0.0000 N   0  0  0  0  0  0  0  0  0  0  0  0
   -0.7500    1.2990    0.0000 C   0  0  0  0  0  0  0  0  0  0  0  0
   -1.5000    0.0000    0.0000 C   0  0  0  0  0  0  0  0  0  0  0  0
   -3.0000    0.0000    0.0000 C   0  0  0  0  0  0  0  0  0  0  0  0
   -3.7500    1.2990    0.0000 C   0  0  0  0  0  0  0  0  0  0  0  0
   -5.2500    1.2990    0.0000 C   0  0  0  0  0  0  0  0  0  0  0  0
   -6.0000    2.5981    0.0000 C   0  0  0  0  0  0  0  0  0  0  0  0
   -7.5000    2.5981    0.0000 C   0  0  0  0  0  0  0  0  0  0  0  0
   -8.2500    1.2990    0.0000 N   0  0  0  0  0  0  0  0  0  0  0  0
   -7.5000    0.0000    0.0000 C   0  0  0  0  0  0  0  0  0  0  0  0
   -6.0000    0.0000    0.0000 C   0  0  0  0  0  0  0  0  0  0  0  0
   -0.7500   -1.2990    0.0000 C   0  0  0  0  0  0  0  0  0  0  0  0
    0.7500   -6.4952    0.0000 C   0  0  0  0  0  0  0  0  0  0  0  0
    1.5000   -7.7942    0.0000 C   0  0  0  0  0  0  0  0  0  0  0  0
    0.7500   -9.0933    0.0000 C   0  0  0  0  0  0  0  0  0  0  0  0
    1.5000  -10.3923    0.0000 C   0  0  0  0  0  0  0  0  0  0  0  0
    3.0000  -10.3923    0.0000 C   0  0  0  0  0  0  0  0  0  0  0  0
    3.7500   -9.0933    0.0000 C   0  0  0  0  0  0  0  0  0  0  0  0
    3.0000   -7.7942    0.0000 C   0  0  0  0  0  0  0  0  0  0  0  0
  1  2  1  0
  2  3  1  0
  3  4  1  0
  4  5  1  0
  5  6  2  0
  6  7  1  0
  7  8  2  0
  8  9  1  0
  9 10  1  0
 10 11  2  3
 11 12  1  0
 12 13  2  0
 13 14  1  0
 14 15  2  0
 15 16  1  0
 16 17  2  0
  9 18  2  0
  2 19  1  0
 19 20  1  0
 20 21  2  0
 21 22  1  0
 22 23  2  0
 23 24  1  0
 24 25  2  0
 18  5  1  0
 17 12  1  0
 25 20  1  0
M  END
>  <Molecule>  (435) 
CHEMBL1991846

>  <Standard Type>  (435) 
Ki

>  <Standard Relation>  (435) 
>

>  <Standard Value>  (435) 
1584.89

>  <Standard Units>  (435) 
nM

>  <pChEMBL Value>  (435) 
nan

>  <Comment>  (435) 
inactive

>  <Compound Key>  (435) 
SID103904967

>  <Assay>  (435) 
CHEMBL1963742

>  <Assay Description>  (435) 
PUBCHEM_BIOASSAY: Navigating the Kinome. (Class of assay: other) Panel member name: JAK3

>  <BAO Format>  (435) 
assay format

>  <Target>  (435) 
CHEMBL2148

>  <Target Pref. Name>  (435) 
Tyrosine-protein kinase JAK3

>  <Target Organism>  (435) 
Homo sapiens

>  <Target Type>  (435) 
SINGLE PROTEIN

>  <Document>  (435) 
CHEMBL1201862

>  <Source>  (435) 
PubChem BioAssays

>  <Max Phase>  (435) 
0

>  <#Ro5 Violations>  (435) 
0

>  <Molecular Weight>  (435) 
331.42

>  <Ligand Efficiency BEI>  (435) 
nan

>  <Ligand Efficiency LE>  (435) 
nan

>  <Ligand Efficiency LLE>  (435) 
nan

>  <Ligand Efficiency SEI>  (435) 
nan

>  <ALogP>  (435) 
3.6

>  <Assay Organism>  (435) 
nan

>  <Assay Tissue ChEMBL ID>  (435) 
nan

>  <Assay Tissue Name>  (435) 
nan

>  <Assay Cell Type>  (435) 
nan

>  <Assay Subcellular Fraction>  (435) 
nan

>  <Organism Tax ID>  (435) 
9606

>  <BAO Format ID>  (435) 
BAO_0000019

>  <Published Type>  (435) 
nan

>  <Published Relation>  (435) 
nan

>  <Published Value>  (435) 
nan

>  <Published Units>  (435) 
nan

>  <Canonical Smiles>  (435) 
NC(COc1cncc(C=Cc2ccncc2)c1)Cc3ccccc3

>  <Data Validity Comment>  (435) 
nan

>  <Document Journal>  (435) 
nan

>  <Document Year>  (435) 
nan

>  <SRC ID>  (435) 
7

>  <UO Units>  (435) 
UO_0000065

>  <Potential Duplicate>  (435) 
False

>  <Class>  (435) 
0

$$$$

     RDKit          2D

 18 20  0  0  0  0  0  0  0  0999 V2000
   -8.1652   -1.5676    0.0000 F   0  0  0  0  0  0  0  0  0  0  0  0
   -7.8533   -0.1004    0.0000 C   0  0  0  0  0  0  0  0  0  0  0  0
   -8.9681    0.9033    0.0000 C   0  0  0  0  0  0  0  0  0  0  0  0
   -8.6562    2.3705    0.0000 C   0  0  0  0  0  0  0  0  0  0  0  0
   -7.2296    2.8340    0.0000 C   0  0  0  0  0  0  0  0  0  0  0  0
   -6.1149    1.8303    0.0000 C   0  0  0  0  0  0  0  0  0  0  0  0
   -4.6883    2.2939    0.0000 C   0  0  0  0  0  0  0  0  0  0  0  0
   -3.5736    1.2902    0.0000 N   0  0  0  0  0  0  0  0  0  0  0  0
   -2.1470    1.7537    0.0000 C   0  0  0  0  0  0  0  0  0  0  0  0
   -1.8351    3.2209    0.0000 N   0  0  0  0  0  0  0  0  0  0  0  0
   -0.4086    3.6844    0.0000 C   0  0  0  0  0  0  0  0  0  0  0  0
    0.7062    2.6807    0.0000 N   0  0  0  0  0  0  0  0  0  0  0  0
    0.3943    1.2135    0.0000 C   0  0  0  0  0  0  0  0  0  0  0  0
    1.2760    0.0000    0.0000 N   0  0  0  0  0  0  0  0  0  0  0  0
    0.3943   -1.2135    0.0000 C   0  0  0  0  0  0  0  0  0  0  0  0
   -1.0323   -0.7500    0.0000 N   0  0  0  0  0  0  0  0  0  0  0  0
   -1.0323    0.7500    0.0000 C   0  0  0  0  0  0  0  0  0  0  0  0
   -6.4268    0.3631    0.0000 C   0  0  0  0  0  0  0  0  0  0  0  0
  1  2  1  0
  2  3  2  0
  3  4  1  0
  4  5  2  0
  5  6  1  0
  6  7  1  0
  7  8  1  0
  8  9  1  0
  9 10  2  0
 10 11  1  0
 11 12  2  0
 12 13  1  0
 13 14  1  0
 14 15  1  0
 15 16  2  0
 16 17  1  0
  6 18  2  0
 18  2  1  0
 17  9  1  0
 17 13  2  0
M  END
>  <Molecule>  (436) 
CHEMBL2003785

>  <Standard Type>  (436) 
Ki

>  <Standard Relation>  (436) 
=

>  <Standard Value>  (436) 
63095.73

>  <Standard Units>  (436) 
nM

>  <pChEMBL Value>  (436) 
4.2

>  <Comment>  (436) 
active

>  <Compound Key>  (436) 
SID103905122

>  <Assay>  (436) 
CHEMBL1963742

>  <Assay Description>  (436) 
PUBCHEM_BIOASSAY: Navigating the Kinome. (Class of assay: other) Panel member name: JAK3

>  <BAO Format>  (436) 
assay format

>  <Target>  (436) 
CHEMBL2148

>  <Target Pref. Name>  (436) 
Tyrosine-protein kinase JAK3

>  <Target Organism>  (436) 
Homo sapiens

>  <Target Type>  (436) 
SINGLE PROTEIN

>  <Document>  (436) 
CHEMBL1201862

>  <Source>  (436) 
PubChem BioAssays

>  <Max Phase>  (436) 
0

>  <#Ro5 Violations>  (436) 
0

>  <Molecular Weight>  (436) 
243.25

>  <Ligand Efficiency BEI>  (436) 
nan

>  <Ligand Efficiency LE>  (436) 
nan

>  <Ligand Efficiency LLE>  (436) 
nan

>  <Ligand Efficiency SEI>  (436) 
nan

>  <ALogP>  (436) 
2.1

>  <Assay Organism>  (436) 
nan

>  <Assay Tissue ChEMBL ID>  (436) 
nan

>  <Assay Tissue Name>  (436) 
nan

>  <Assay Cell Type>  (436) 
nan

>  <Assay Subcellular Fraction>  (436) 
nan

>  <Organism Tax ID>  (436) 
9606

>  <BAO Format ID>  (436) 
BAO_0000019

>  <Published Type>  (436) 
nan

>  <Published Relation>  (436) 
nan

>  <Published Value>  (436) 
nan

>  <Published Units>  (436) 
nan

>  <Canonical Smiles>  (436) 
Fc1cccc(CNc2ncnc3[nH]cnc23)c1

>  <Data Validity Comment>  (436) 
nan

>  <Document Journal>  (436) 
nan

>  <Document Year>  (436) 
nan

>  <SRC ID>  (436) 
7

>  <UO Units>  (436) 
UO_0000065

>  <Potential Duplicate>  (436) 
False

>  <Class>  (436) 
1

$$$$

     RDKit          2D

 21 23  0  0  0  0  0  0  0  0999 V2000
    3.0000    0.0000    0.0000 C   0  0  0  0  0  0  0  0  0  0  0  0
    1.5000    0.0000    0.0000 C   0  0  0  0  0  0  0  0  0  0  0  0
    0.7500   -1.2990    0.0000 C   0  0  0  0  0  0  0  0  0  0  0  0
   -0.7500   -1.2990    0.0000 C   0  0  0  0  0  0  0  0  0  0  0  0
   -1.5000    0.0000    0.0000 N   0  0  0  0  0  0  0  0  0  0  0  0
   -0.7500    1.2990    0.0000 C   0  0  0  0  0  0  0  0  0  0  0  0
   -1.5000    2.5981    0.0000 N   0  0  0  0  0  0  0  0  0  0  0  0
   -0.7500    3.8971    0.0000 C   0  0  0  0  0  0  0  0  0  0  0  0
    0.7500    3.8971    0.0000 C   0  0  0  0  0  0  0  0  0  0  0  0
    1.5000    5.1962    0.0000 C   0  0  0  0  0  0  0  0  0  0  0  0
    3.0000    5.1962    0.0000 C   0  0  0  0  0  0  0  0  0  0  0  0
    0.7500    6.4952    0.0000 N   0  0  0  0  0  0  0  0  0  0  0  0
   -0.7500    6.4952    0.0000 C   0  0  0  0  0  0  0  0  0  0  0  0
   -1.5000    5.1962    0.0000 N   0  0  0  0  0  0  0  0  0  0  0  0
   -1.5000    7.7942    0.0000 C   0  0  0  0  0  0  0  0  0  0  0  0
   -0.7500    9.0933    0.0000 C   0  0  0  0  0  0  0  0  0  0  0  0
   -1.5000   10.3923    0.0000 C   0  0  0  0  0  0  0  0  0  0  0  0
   -3.0000   10.3923    0.0000 C   0  0  0  0  0  0  0  0  0  0  0  0
   -3.7500    9.0933    0.0000 C   0  0  0  0  0  0  0  0  0  0  0  0
   -3.0000    7.7942    0.0000 C   0  0  0  0  0  0  0  0  0  0  0  0
    0.7500    1.2990    0.0000 C   0  0  0  0  0  0  0  0  0  0  0  0
  1  2  1  0
  2  3  2  0
  3  4  1  0
  4  5  2  0
  5  6  1  0
  6  7  1  0
  7  8  1  0
  8  9  2  0
  9 10  1  0
 10 11  1  0
 10 12  2  0
 12 13  1  0
 13 14  2  0
 13 15  1  0
 15 16  2  0
 16 17  1  0
 17 18  2  0
 18 19  1  0
 19 20  2  0
  6 21  2  0
 21  2  1  0
 14  8  1  0
 20 15  1  0
M  END
>  <Molecule>  (437) 
CHEMBL1985367

>  <Standard Type>  (437) 
Ki

>  <Standard Relation>  (437) 
>

>  <Standard Value>  (437) 
5011.87

>  <Standard Units>  (437) 
nM

>  <pChEMBL Value>  (437) 
nan

>  <Comment>  (437) 
inactive

>  <Compound Key>  (437) 
SID103905158

>  <Assay>  (437) 
CHEMBL1963742

>  <Assay Description>  (437) 
PUBCHEM_BIOASSAY: Navigating the Kinome. (Class of assay: other) Panel member name: JAK3

>  <BAO Format>  (437) 
assay format

>  <Target>  (437) 
CHEMBL2148

>  <Target Pref. Name>  (437) 
Tyrosine-protein kinase JAK3

>  <Target Organism>  (437) 
Homo sapiens

>  <Target Type>  (437) 
SINGLE PROTEIN

>  <Document>  (437) 
CHEMBL1201862

>  <Source>  (437) 
PubChem BioAssays

>  <Max Phase>  (437) 
0

>  <#Ro5 Violations>  (437) 
0

>  <Molecular Weight>  (437) 
276.34

>  <Ligand Efficiency BEI>  (437) 
nan

>  <Ligand Efficiency LE>  (437) 
nan

>  <Ligand Efficiency LLE>  (437) 
nan

>  <Ligand Efficiency SEI>  (437) 
nan

>  <ALogP>  (437) 
3.9

>  <Assay Organism>  (437) 
nan

>  <Assay Tissue ChEMBL ID>  (437) 
nan

>  <Assay Tissue Name>  (437) 
nan

>  <Assay Cell Type>  (437) 
nan

>  <Assay Subcellular Fraction>  (437) 
nan

>  <Organism Tax ID>  (437) 
9606

>  <BAO Format ID>  (437) 
BAO_0000019

>  <Published Type>  (437) 
nan

>  <Published Relation>  (437) 
nan

>  <Published Value>  (437) 
nan

>  <Published Units>  (437) 
nan

>  <Canonical Smiles>  (437) 
Cc1ccnc(Nc2cc(C)nc(n2)c3ccccc3)c1

>  <Data Validity Comment>  (437) 
nan

>  <Document Journal>  (437) 
nan

>  <Document Year>  (437) 
nan

>  <SRC ID>  (437) 
7

>  <UO Units>  (437) 
UO_0000065

>  <Potential Duplicate>  (437) 
False

>  <Class>  (437) 
0

$$$$

     RDKit          2D

 22 25  0  0  0  0  0  0  0  0999 V2000
   -2.6401   -3.1891    0.0000 C   0  0  0  0  0  0  0  0  0  0  0  0
   -1.2135   -2.7256    0.0000 N   0  0  0  0  0  0  0  0  0  0  0  0
   -0.0000   -3.6073    0.0000 C   0  0  0  0  0  0  0  0  0  0  0  0
    1.2135   -2.7256    0.0000 C   0  0  0  0  0  0  0  0  0  0  0  0
    2.6401   -3.1891    0.0000 C   0  0  0  0  0  0  0  0  0  0  0  0
    3.1036   -4.6157    0.0000 C   0  0  0  0  0  0  0  0  0  0  0  0
    4.6036   -4.6157    0.0000 C   0  0  0  0  0  0  0  0  0  0  0  0
    5.6073   -5.7305    0.0000 N   0  0  0  0  0  0  0  0  0  0  0  0
    7.0746   -5.4186    0.0000 C   0  0  0  0  0  0  0  0  0  0  0  0
    8.0782   -6.5333    0.0000 Br  0  0  0  0  0  0  0  0  0  0  0  0
    7.5381   -3.9920    0.0000 C   0  0  0  0  0  0  0  0  0  0  0  0
    6.5344   -2.8773    0.0000 N   0  0  0  0  0  0  0  0  0  0  0  0
    5.0672   -3.1891    0.0000 C   0  0  0  0  0  0  0  0  0  0  0  0
    3.8536   -2.3075    0.0000 N   0  0  0  0  0  0  0  0  0  0  0  0
    0.7500   -1.2990    0.0000 C   0  0  0  0  0  0  0  0  0  0  0  0
    1.5000    0.0000    0.0000 C   0  0  0  0  0  0  0  0  0  0  0  0
    0.7500    1.2990    0.0000 C   0  0  0  0  0  0  0  0  0  0  0  0
   -0.7500    1.2990    0.0000 C   0  0  0  0  0  0  0  0  0  0  0  0
   -1.5000    0.0000    0.0000 C   0  0  0  0  0  0  0  0  0  0  0  0
   -0.7500   -1.2990    0.0000 C   0  0  0  0  0  0  0  0  0  0  0  0
    1.5000    2.5981    0.0000 C   0  0  0  0  0  0  0  0  0  0  0  0
    2.2500    3.8971    0.0000 N   0  0  0  0  0  0  0  0  0  0  0  0
  1  2  1  0
  2  3  1  0
  3  4  2  0
  4  5  1  0
  5  6  2  0
  6  7  1  0
  7  8  2  0
  8  9  1  0
  9 10  1  0
  9 11  2  0
 11 12  1  0
 12 13  2  0
 13 14  1  0
  4 15  1  0
 15 16  2  0
 16 17  1  0
 17 18  2  0
 18 19  1  0
 19 20  2  0
 17 21  1  0
 21 22  3  0
 20  2  1  0
 14  5  1  0
 13  7  1  0
 20 15  1  0
M  END
>  <Molecule>  (438) 
CHEMBL1978562

>  <Standard Type>  (438) 
Ki

>  <Standard Relation>  (438) 
=

>  <Standard Value>  (438) 
2511.89

>  <Standard Units>  (438) 
nM

>  <pChEMBL Value>  (438) 
5.6

>  <Comment>  (438) 
active

>  <Compound Key>  (438) 
SID103905680

>  <Assay>  (438) 
CHEMBL1963742

>  <Assay Description>  (438) 
PUBCHEM_BIOASSAY: Navigating the Kinome. (Class of assay: other) Panel member name: JAK3

>  <BAO Format>  (438) 
assay format

>  <Target>  (438) 
CHEMBL2148

>  <Target Pref. Name>  (438) 
Tyrosine-protein kinase JAK3

>  <Target Organism>  (438) 
Homo sapiens

>  <Target Type>  (438) 
SINGLE PROTEIN

>  <Document>  (438) 
CHEMBL1201862

>  <Source>  (438) 
PubChem BioAssays

>  <Max Phase>  (438) 
0

>  <#Ro5 Violations>  (438) 
0

>  <Molecular Weight>  (438) 
352.2

>  <Ligand Efficiency BEI>  (438) 
nan

>  <Ligand Efficiency LE>  (438) 
nan

>  <Ligand Efficiency LLE>  (438) 
nan

>  <Ligand Efficiency SEI>  (438) 
nan

>  <ALogP>  (438) 
3.75

>  <Assay Organism>  (438) 
nan

>  <Assay Tissue ChEMBL ID>  (438) 
nan

>  <Assay Tissue Name>  (438) 
nan

>  <Assay Cell Type>  (438) 
nan

>  <Assay Subcellular Fraction>  (438) 
nan

>  <Organism Tax ID>  (438) 
9606

>  <BAO Format ID>  (438) 
BAO_0000019

>  <Published Type>  (438) 
nan

>  <Published Relation>  (438) 
nan

>  <Published Value>  (438) 
nan

>  <Published Units>  (438) 
nan

>  <Canonical Smiles>  (438) 
Cn1cc(c2cc3nc(Br)cnc3[nH]2)c4cc(ccc14)C#N

>  <Data Validity Comment>  (438) 
nan

>  <Document Journal>  (438) 
nan

>  <Document Year>  (438) 
nan

>  <SRC ID>  (438) 
7

>  <UO Units>  (438) 
UO_0000065

>  <Potential Duplicate>  (438) 
False

>  <Class>  (438) 
1

$$$$

     RDKit          2D

 23 26  0  0  0  0  0  0  0  0999 V2000
   -8.3464   -5.0433    0.0000 F   0  0  0  0  0  0  0  0  0  0  0  0
   -6.9199   -4.5797    0.0000 C   0  0  0  0  0  0  0  0  0  0  0  0
   -7.3834   -3.1531    0.0000 F   0  0  0  0  0  0  0  0  0  0  0  0
   -6.4563   -6.0063    0.0000 F   0  0  0  0  0  0  0  0  0  0  0  0
   -5.4933   -4.1162    0.0000 C   0  0  0  0  0  0  0  0  0  0  0  0
   -5.1814   -2.6490    0.0000 C   0  0  0  0  0  0  0  0  0  0  0  0
   -3.7548   -2.1855    0.0000 C   0  0  0  0  0  0  0  0  0  0  0  0
   -2.6401   -3.1891    0.0000 C   0  0  0  0  0  0  0  0  0  0  0  0
   -2.9520   -4.6564    0.0000 C   0  0  0  0  0  0  0  0  0  0  0  0
   -4.3786   -5.1199    0.0000 C   0  0  0  0  0  0  0  0  0  0  0  0
   -1.2135   -2.7256    0.0000 C   0  0  0  0  0  0  0  0  0  0  0  0
    0.0000   -3.6073    0.0000 N   0  0  0  0  0  0  0  0  0  0  0  0
    1.2135   -2.7256    0.0000 N   0  0  0  0  0  0  0  0  0  0  0  0
    0.7500   -1.2990    0.0000 C   0  0  0  0  0  0  0  0  0  0  0  0
    1.5000    0.0000    0.0000 C   0  0  0  0  0  0  0  0  0  0  0  0
    0.7500    1.2990    0.0000 C   0  0  0  0  0  0  0  0  0  0  0  0
   -0.7500    1.2990    0.0000 C   0  0  0  0  0  0  0  0  0  0  0  0
   -1.5000    2.5981    0.0000 N   0  0  0  0  0  0  0  0  0  0  0  0
   -0.7500    3.8971    0.0000 C   0  0  0  0  0  0  0  0  0  0  0  0
   -0.7500    5.3971    0.0000 C   0  0  0  0  0  0  0  0  0  0  0  0
    0.5490    4.6471    0.0000 C   0  0  0  0  0  0  0  0  0  0  0  0
   -1.5000    0.0000    0.0000 N   0  0  0  0  0  0  0  0  0  0  0  0
   -0.7500   -1.2990    0.0000 N   0  0  0  0  0  0  0  0  0  0  0  0
  1  2  1  0
  2  3  1  0
  2  4  1  0
  2  5  1  0
  5  6  2  0
  6  7  1  0
  7  8  2  0
  8  9  1  0
  9 10  2  0
  8 11  1  0
 11 12  2  0
 12 13  1  0
 13 14  2  0
 14 15  1  0
 15 16  2  0
 16 17  1  0
 17 18  1  0
 18 19  1  0
 19 20  1  0
 20 21  1  0
 17 22  2  0
 22 23  1  0
 10  5  1  0
 23 11  1  0
 23 14  1  0
 21 19  1  0
M  END
>  <Molecule>  (439) 
CHEMBL451964

>  <Standard Type>  (439) 
Ki

>  <Standard Relation>  (439) 
>

>  <Standard Value>  (439) 
1584.89

>  <Standard Units>  (439) 
nM

>  <pChEMBL Value>  (439) 
nan

>  <Comment>  (439) 
inactive

>  <Compound Key>  (439) 
SID103905360

>  <Assay>  (439) 
CHEMBL1963742

>  <Assay Description>  (439) 
PUBCHEM_BIOASSAY: Navigating the Kinome. (Class of assay: other) Panel member name: JAK3

>  <BAO Format>  (439) 
assay format

>  <Target>  (439) 
CHEMBL2148

>  <Target Pref. Name>  (439) 
Tyrosine-protein kinase JAK3

>  <Target Organism>  (439) 
Homo sapiens

>  <Target Type>  (439) 
SINGLE PROTEIN

>  <Document>  (439) 
CHEMBL1201862

>  <Source>  (439) 
PubChem BioAssays

>  <Max Phase>  (439) 
0

>  <#Ro5 Violations>  (439) 
0

>  <Molecular Weight>  (439) 
319.29

>  <Ligand Efficiency BEI>  (439) 
nan

>  <Ligand Efficiency LE>  (439) 
nan

>  <Ligand Efficiency LLE>  (439) 
nan

>  <Ligand Efficiency SEI>  (439) 
nan

>  <ALogP>  (439) 
3.38

>  <Assay Organism>  (439) 
nan

>  <Assay Tissue ChEMBL ID>  (439) 
nan

>  <Assay Tissue Name>  (439) 
nan

>  <Assay Cell Type>  (439) 
nan

>  <Assay Subcellular Fraction>  (439) 
nan

>  <Organism Tax ID>  (439) 
9606

>  <BAO Format ID>  (439) 
BAO_0000019

>  <Published Type>  (439) 
nan

>  <Published Relation>  (439) 
nan

>  <Published Value>  (439) 
nan

>  <Published Units>  (439) 
nan

>  <Canonical Smiles>  (439) 
FC(F)(F)c1ccc(cc1)c2nnc3ccc(NC4CC4)nn23

>  <Data Validity Comment>  (439) 
nan

>  <Document Journal>  (439) 
nan

>  <Document Year>  (439) 
nan

>  <SRC ID>  (439) 
7

>  <UO Units>  (439) 
UO_0000065

>  <Potential Duplicate>  (439) 
False

>  <Class>  (439) 
0

$$$$

     RDKit          2D

 23 26  0  0  0  0  0  0  0  0999 V2000
  -10.5923    4.1480    0.0000 N   0  0  0  0  0  0  0  0  0  0  0  0
   -9.1657    3.6844    0.0000 C   0  0  0  0  0  0  0  0  0  0  0  0
   -7.7391    3.2209    0.0000 C   0  0  0  0  0  0  0  0  0  0  0  0
   -7.4272    1.7537    0.0000 C   0  0  0  0  0  0  0  0  0  0  0  0
   -8.5419    0.7500    0.0000 C   0  0  0  0  0  0  0  0  0  0  0  0
   -8.3851   -0.7418    0.0000 C   0  0  0  0  0  0  0  0  0  0  0  0
   -9.7555   -1.3519    0.0000 C   0  0  0  0  0  0  0  0  0  0  0  0
  -10.7592   -0.2372    0.0000 C   0  0  0  0  0  0  0  0  0  0  0  0
  -10.0092    1.0619    0.0000 C   0  0  0  0  0  0  0  0  0  0  0  0
   -6.0006    1.2902    0.0000 N   0  0  0  0  0  0  0  0  0  0  0  0
   -4.7871    2.1718    0.0000 C   0  0  0  0  0  0  0  0  0  0  0  0
   -3.5736    1.2902    0.0000 C   0  0  0  0  0  0  0  0  0  0  0  0
   -4.0371   -0.1364    0.0000 C   0  0  0  0  0  0  0  0  0  0  0  0
   -5.5371   -0.1364    0.0000 N   0  0  0  0  0  0  0  0  0  0  0  0
   -2.1470    1.7537    0.0000 C   0  0  0  0  0  0  0  0  0  0  0  0
   -1.8351    3.2209    0.0000 N   0  0  0  0  0  0  0  0  0  0  0  0
   -0.4086    3.6844    0.0000 C   0  0  0  0  0  0  0  0  0  0  0  0
    0.7062    2.6807    0.0000 N   0  0  0  0  0  0  0  0  0  0  0  0
    0.3943    1.2135    0.0000 C   0  0  0  0  0  0  0  0  0  0  0  0
    1.2760    0.0000    0.0000 N   0  0  0  0  0  0  0  0  0  0  0  0
    0.3943   -1.2135    0.0000 C   0  0  0  0  0  0  0  0  0  0  0  0
   -1.0323   -0.7500    0.0000 C   0  0  0  0  0  0  0  0  0  0  0  0
   -1.0323    0.7500    0.0000 C   0  0  0  0  0  0  0  0  0  0  0  0
  1  2  3  0
  2  3  1  0
  3  4  1  0
  4  5  1  0
  5  6  1  0
  6  7  1  0
  7  8  1  0
  8  9  1  0
  4 10  1  0
 10 11  1  0
 11 12  2  0
 12 13  1  0
 13 14  2  0
 12 15  1  0
 15 16  2  0
 16 17  1  0
 17 18  2  0
 18 19  1  0
 19 20  1  0
 20 21  1  0
 21 22  2  0
 22 23  1  0
  9  5  1  0
 14 10  1  0
 23 15  1  0
 23 19  2  0
M  END
>  <Molecule>  (440) 
CHEMBL2002099

>  <Standard Type>  (440) 
Ki

>  <Standard Relation>  (440) 
=

>  <Standard Value>  (440) 
158.49

>  <Standard Units>  (440) 
nM

>  <pChEMBL Value>  (440) 
6.8

>  <Comment>  (440) 
active

>  <Compound Key>  (440) 
SID103905273

>  <Assay>  (440) 
CHEMBL1963742

>  <Assay Description>  (440) 
PUBCHEM_BIOASSAY: Navigating the Kinome. (Class of assay: other) Panel member name: JAK3

>  <BAO Format>  (440) 
assay format

>  <Target>  (440) 
CHEMBL2148

>  <Target Pref. Name>  (440) 
Tyrosine-protein kinase JAK3

>  <Target Organism>  (440) 
Homo sapiens

>  <Target Type>  (440) 
SINGLE PROTEIN

>  <Document>  (440) 
CHEMBL1201862

>  <Source>  (440) 
PubChem BioAssays

>  <Max Phase>  (440) 
0

>  <#Ro5 Violations>  (440) 
0

>  <Molecular Weight>  (440) 
306.37

>  <Ligand Efficiency BEI>  (440) 
nan

>  <Ligand Efficiency LE>  (440) 
nan

>  <Ligand Efficiency LLE>  (440) 
nan

>  <Ligand Efficiency SEI>  (440) 
nan

>  <ALogP>  (440) 
3.47

>  <Assay Organism>  (440) 
nan

>  <Assay Tissue ChEMBL ID>  (440) 
nan

>  <Assay Tissue Name>  (440) 
nan

>  <Assay Cell Type>  (440) 
nan

>  <Assay Subcellular Fraction>  (440) 
nan

>  <Organism Tax ID>  (440) 
9606

>  <BAO Format ID>  (440) 
BAO_0000019

>  <Published Type>  (440) 
nan

>  <Published Relation>  (440) 
nan

>  <Published Value>  (440) 
nan

>  <Published Units>  (440) 
nan

>  <Canonical Smiles>  (440) 
N#CCC(C1CCCC1)n2cc(cn2)c3ncnc4[nH]ccc34

>  <Data Validity Comment>  (440) 
nan

>  <Document Journal>  (440) 
nan

>  <Document Year>  (440) 
nan

>  <SRC ID>  (440) 
7

>  <UO Units>  (440) 
UO_0000065

>  <Potential Duplicate>  (440) 
False

>  <Class>  (440) 
1

$$$$

     RDKit          2D

 36 40  0  0  0  0  0  0  0  0999 V2000
   -1.8373   -5.6601    0.0000 N   0  0  0  0  0  0  0  0  0  0  0  0
   -2.9520   -4.6564    0.0000 C   0  0  0  0  0  0  0  0  0  0  0  0
   -4.3786   -5.1199    0.0000 C   0  0  0  0  0  0  0  0  0  0  0  0
   -4.6904   -6.5871    0.0000 O   0  0  0  0  0  0  0  0  0  0  0  0
   -6.1170   -7.0506    0.0000 C   0  0  0  0  0  0  0  0  0  0  0  0
   -7.2317   -6.0469    0.0000 C   0  0  0  0  0  0  0  0  0  0  0  0
   -8.6583   -6.5105    0.0000 N   0  0  0  0  0  0  0  0  0  0  0  0
   -8.9702   -7.9777    0.0000 C   0  0  0  0  0  0  0  0  0  0  0  0
   -7.8555   -8.9814    0.0000 C   0  0  0  0  0  0  0  0  0  0  0  0
   -6.4289   -8.5179    0.0000 C   0  0  0  0  0  0  0  0  0  0  0  0
   -8.1673  -10.4486    0.0000 C   0  0  0  0  0  0  0  0  0  0  0  0
   -9.5939  -10.9121    0.0000 C   0  0  0  0  0  0  0  0  0  0  0  0
   -9.9058  -12.3794    0.0000 C   0  0  0  0  0  0  0  0  0  0  0  0
   -8.7911  -13.3831    0.0000 C   0  0  0  0  0  0  0  0  0  0  0  0
   -9.1029  -14.8503    0.0000 N   0  0  0  0  0  0  0  0  0  0  0  0
   -7.3645  -12.9195    0.0000 C   0  0  0  0  0  0  0  0  0  0  0  0
   -7.0526  -11.4523    0.0000 C   0  0  0  0  0  0  0  0  0  0  0  0
   -6.2498  -13.9232    0.0000 C   0  0  0  0  0  0  0  0  0  0  0  0
   -6.5616  -15.3904    0.0000 O   0  0  0  0  0  0  0  0  0  0  0  0
   -4.8232  -13.4597    0.0000 C   0  0  0  0  0  0  0  0  0  0  0  0
   -3.7085  -14.4634    0.0000 C   0  0  0  0  0  0  0  0  0  0  0  0
   -2.2819  -13.9999    0.0000 C   0  0  0  0  0  0  0  0  0  0  0  0
   -1.9700  -12.5326    0.0000 C   0  0  0  0  0  0  0  0  0  0  0  0
   -3.0847  -11.5290    0.0000 C   0  0  0  0  0  0  0  0  0  0  0  0
   -4.5113  -11.9925    0.0000 C   0  0  0  0  0  0  0  0  0  0  0  0
   -5.6260  -10.9888    0.0000 F   0  0  0  0  0  0  0  0  0  0  0  0
   -2.6401   -3.1891    0.0000 C   0  0  0  0  0  0  0  0  0  0  0  0
   -1.2135   -2.7256    0.0000 C   0  0  0  0  0  0  0  0  0  0  0  0
    0.0000   -3.6073    0.0000 C   0  0  0  0  0  0  0  0  0  0  0  0
    1.2135   -2.7256    0.0000 N   0  0  0  0  0  0  0  0  0  0  0  0
    0.7500   -1.2990    0.0000 C   0  0  0  0  0  0  0  0  0  0  0  0
    1.5000    0.0000    0.0000 C   0  0  0  0  0  0  0  0  0  0  0  0
    0.7500    1.2990    0.0000 C   0  0  0  0  0  0  0  0  0  0  0  0
   -0.7500    1.2990    0.0000 C   0  0  0  0  0  0  0  0  0  0  0  0
   -1.5000    0.0000    0.0000 C   0  0  0  0  0  0  0  0  0  0  0  0
   -0.7500   -1.2990    0.0000 C   0  0  0  0  0  0  0  0  0  0  0  0
  1  2  1  0
  2  3  1  0
  3  4  1  0
  4  5  1  0
  5  6  2  0
  6  7  1  0
  7  8  2  0
  8  9  1  0
  9 10  2  0
  9 11  1  0
 11 12  2  0
 12 13  1  0
 13 14  2  0
 14 15  1  0
 14 16  1  0
 16 17  2  0
 16 18  1  0
 18 19  2  0
 18 20  1  0
 20 21  2  0
 21 22  1  0
 22 23  2  0
 23 24  1  0
 24 25  2  0
 25 26  1  0
  2 27  1  0
 27 28  1  0
 28 29  2  0
 29 30  1  0
 30 31  1  0
 31 32  2  0
 32 33  1  0
 33 34  2  0
 34 35  1  0
 35 36  2  0
 10  5  1  0
 17 11  1  0
 25 20  1  0
 36 28  1  0
 36 31  1  0
M  END
>  <Molecule>  (441) 
CHEMBL1994361

>  <Standard Type>  (441) 
Ki

>  <Standard Relation>  (441) 
>

>  <Standard Value>  (441) 
1584.89

>  <Standard Units>  (441) 
nM

>  <pChEMBL Value>  (441) 
nan

>  <Comment>  (441) 
inactive

>  <Compound Key>  (441) 
SID103904476

>  <Assay>  (441) 
CHEMBL1963742

>  <Assay Description>  (441) 
PUBCHEM_BIOASSAY: Navigating the Kinome. (Class of assay: other) Panel member name: JAK3

>  <BAO Format>  (441) 
assay format

>  <Target>  (441) 
CHEMBL2148

>  <Target Pref. Name>  (441) 
Tyrosine-protein kinase JAK3

>  <Target Organism>  (441) 
Homo sapiens

>  <Target Type>  (441) 
SINGLE PROTEIN

>  <Document>  (441) 
CHEMBL1201862

>  <Source>  (441) 
PubChem BioAssays

>  <Max Phase>  (441) 
0

>  <#Ro5 Violations>  (441) 
1

>  <Molecular Weight>  (441) 
480.54

>  <Ligand Efficiency BEI>  (441) 
nan

>  <Ligand Efficiency LE>  (441) 
nan

>  <Ligand Efficiency LLE>  (441) 
nan

>  <Ligand Efficiency SEI>  (441) 
nan

>  <ALogP>  (441) 
5.13

>  <Assay Organism>  (441) 
nan

>  <Assay Tissue ChEMBL ID>  (441) 
nan

>  <Assay Tissue Name>  (441) 
nan

>  <Assay Cell Type>  (441) 
nan

>  <Assay Subcellular Fraction>  (441) 
nan

>  <Organism Tax ID>  (441) 
9606

>  <BAO Format ID>  (441) 
BAO_0000019

>  <Published Type>  (441) 
nan

>  <Published Relation>  (441) 
nan

>  <Published Value>  (441) 
nan

>  <Published Units>  (441) 
nan

>  <Canonical Smiles>  (441) 
NC(COc1cncc(c1)c2ccc(N)c(c2)C(=O)c3ccccc3F)Cc4c[nH]c5ccccc45

>  <Data Validity Comment>  (441) 
nan

>  <Document Journal>  (441) 
nan

>  <Document Year>  (441) 
nan

>  <SRC ID>  (441) 
7

>  <UO Units>  (441) 
UO_0000065

>  <Potential Duplicate>  (441) 
False

>  <Class>  (441) 
0

$$$$

     RDKit          2D

 29 33  0  0  0  0  0  0  0  0999 V2000
   -5.1962   -9.6073    0.0000 N   0  0  0  0  0  0  0  0  0  0  0  0
   -5.1962   -8.1073    0.0000 C   0  0  0  0  0  0  0  0  0  0  0  0
   -3.8971   -7.3573    0.0000 C   0  0  0  0  0  0  0  0  0  0  0  0
   -2.5981   -8.1073    0.0000 O   0  0  0  0  0  0  0  0  0  0  0  0
   -1.2990   -7.3573    0.0000 C   0  0  0  0  0  0  0  0  0  0  0  0
    0.0000   -8.1073    0.0000 C   0  0  0  0  0  0  0  0  0  0  0  0
    1.2990   -7.3573    0.0000 N   0  0  0  0  0  0  0  0  0  0  0  0
    1.2990   -5.8573    0.0000 C   0  0  0  0  0  0  0  0  0  0  0  0
   -0.0000   -5.1073    0.0000 C   0  0  0  0  0  0  0  0  0  0  0  0
   -1.2990   -5.8573    0.0000 C   0  0  0  0  0  0  0  0  0  0  0  0
   -0.0000   -3.6073    0.0000 C   0  0  0  0  0  0  0  0  0  0  0  0
    1.2135   -2.7256    0.0000 C   0  0  0  0  0  0  0  0  0  0  0  0
    0.7500   -1.2990    0.0000 C   0  0  0  0  0  0  0  0  0  0  0  0
    1.5000    0.0000    0.0000 C   0  0  0  0  0  0  0  0  0  0  0  0
    0.7500    1.2990    0.0000 N   0  0  0  0  0  0  0  0  0  0  0  0
   -0.7500    1.2990    0.0000 C   0  0  0  0  0  0  0  0  0  0  0  0
   -1.5000    0.0000    0.0000 C   0  0  0  0  0  0  0  0  0  0  0  0
   -0.7500   -1.2990    0.0000 C   0  0  0  0  0  0  0  0  0  0  0  0
   -1.2135   -2.7256    0.0000 S   0  0  0  0  0  0  0  0  0  0  0  0
   -6.4952   -7.3573    0.0000 C   0  0  0  0  0  0  0  0  0  0  0  0
   -7.7942   -8.1073    0.0000 C   0  0  0  0  0  0  0  0  0  0  0  0
   -7.9510   -9.5991    0.0000 C   0  0  0  0  0  0  0  0  0  0  0  0
   -9.4182   -9.9110    0.0000 N   0  0  0  0  0  0  0  0  0  0  0  0
  -10.1682   -8.6119    0.0000 C   0  0  0  0  0  0  0  0  0  0  0  0
  -11.6355   -8.3000    0.0000 C   0  0  0  0  0  0  0  0  0  0  0  0
  -12.0990   -6.8735    0.0000 C   0  0  0  0  0  0  0  0  0  0  0  0
  -11.0953   -5.7587    0.0000 C   0  0  0  0  0  0  0  0  0  0  0  0
   -9.6281   -6.0706    0.0000 C   0  0  0  0  0  0  0  0  0  0  0  0
   -9.1645   -7.4972    0.0000 C   0  0  0  0  0  0  0  0  0  0  0  0
  1  2  1  0
  2  3  1  0
  3  4  1  0
  4  5  1  0
  5  6  2  0
  6  7  1  0
  7  8  2  0
  8  9  1  0
  9 10  2  0
  9 11  1  0
 11 12  2  0
 12 13  1  0
 13 14  2  0
 14 15  1  0
 15 16  2  0
 16 17  1  0
 17 18  2  0
 18 19  1  0
  2 20  1  0
 20 21  1  0
 21 22  2  0
 22 23  1  0
 23 24  1  0
 24 25  2  0
 25 26  1  0
 26 27  2  0
 27 28  1  0
 28 29  2  0
 10  5  1  0
 19 11  1  0
 18 13  1  0
 29 21  1  0
 29 24  1  0
M  END
>  <Molecule>  (442) 
CHEMBL1972840

>  <Standard Type>  (442) 
Ki

>  <Standard Relation>  (442) 
>

>  <Standard Value>  (442) 
1584.89

>  <Standard Units>  (442) 
nM

>  <pChEMBL Value>  (442) 
nan

>  <Comment>  (442) 
inactive

>  <Compound Key>  (442) 
SID103904751

>  <Assay>  (442) 
CHEMBL1963742

>  <Assay Description>  (442) 
PUBCHEM_BIOASSAY: Navigating the Kinome. (Class of assay: other) Panel member name: JAK3

>  <BAO Format>  (442) 
assay format

>  <Target>  (442) 
CHEMBL2148

>  <Target Pref. Name>  (442) 
Tyrosine-protein kinase JAK3

>  <Target Organism>  (442) 
Homo sapiens

>  <Target Type>  (442) 
SINGLE PROTEIN

>  <Document>  (442) 
CHEMBL1201862

>  <Source>  (442) 
PubChem BioAssays

>  <Max Phase>  (442) 
0

>  <#Ro5 Violations>  (442) 
0

>  <Molecular Weight>  (442) 
400.51

>  <Ligand Efficiency BEI>  (442) 
nan

>  <Ligand Efficiency LE>  (442) 
nan

>  <Ligand Efficiency LLE>  (442) 
nan

>  <Ligand Efficiency SEI>  (442) 
nan

>  <ALogP>  (442) 
4.79

>  <Assay Organism>  (442) 
nan

>  <Assay Tissue ChEMBL ID>  (442) 
nan

>  <Assay Tissue Name>  (442) 
nan

>  <Assay Cell Type>  (442) 
nan

>  <Assay Subcellular Fraction>  (442) 
nan

>  <Organism Tax ID>  (442) 
9606

>  <BAO Format ID>  (442) 
BAO_0000019

>  <Published Type>  (442) 
nan

>  <Published Relation>  (442) 
nan

>  <Published Value>  (442) 
nan

>  <Published Units>  (442) 
nan

>  <Canonical Smiles>  (442) 
NC(COc1cncc(c1)c2cc3cnccc3s2)Cc4c[nH]c5ccccc45

>  <Data Validity Comment>  (442) 
nan

>  <Document Journal>  (442) 
nan

>  <Document Year>  (442) 
nan

>  <SRC ID>  (442) 
7

>  <UO Units>  (442) 
UO_0000065

>  <Potential Duplicate>  (442) 
False

>  <Class>  (442) 
0

$$$$

     RDKit          2D

 46 52  0  0  0  0  0  0  0  0999 V2000
   -2.6865    9.0888    0.0000 C   0  0  0  0  0  0  0  0  0  0  0  0
   -4.1131    8.6253    0.0000 C   0  0  0  0  0  0  0  0  0  0  0  0
   -4.4249    7.1580    0.0000 N   0  0  0  0  0  0  0  0  0  0  0  0
   -3.3102    6.1544    0.0000 C   0  0  0  0  0  0  0  0  0  0  0  0
   -3.6221    4.6871    0.0000 C   0  0  0  0  0  0  0  0  0  0  0  0
   -5.0487    4.2236    0.0000 N   0  0  0  0  0  0  0  0  0  0  0  0
   -6.1634    5.2273    0.0000 C   0  0  0  0  0  0  0  0  0  0  0  0
   -5.8515    6.6945    0.0000 C   0  0  0  0  0  0  0  0  0  0  0  0
   -5.3605    2.7564    0.0000 C   0  0  0  0  0  0  0  0  0  0  0  0
   -6.7871    2.2929    0.0000 C   0  0  0  0  0  0  0  0  0  0  0  0
   -7.0990    0.8256    0.0000 C   0  0  0  0  0  0  0  0  0  0  0  0
   -5.9843   -0.1781    0.0000 C   0  0  0  0  0  0  0  0  0  0  0  0
   -6.2961   -1.6453    0.0000 N   0  0  0  0  0  0  0  0  0  0  0  0
   -5.1814   -2.6490    0.0000 C   0  0  0  0  0  0  0  0  0  0  0  0
   -5.4933   -4.1162    0.0000 N   0  0  0  0  0  0  0  0  0  0  0  0
   -4.3786   -5.1199    0.0000 C   0  0  0  0  0  0  0  0  0  0  0  0
   -2.9520   -4.6564    0.0000 C   0  0  0  0  0  0  0  0  0  0  0  0
   -2.6401   -3.1891    0.0000 C   0  0  0  0  0  0  0  0  0  0  0  0
   -3.7548   -2.1855    0.0000 N   0  0  0  0  0  0  0  0  0  0  0  0
   -1.2135   -2.7256    0.0000 C   0  0  0  0  0  0  0  0  0  0  0  0
   -0.0000   -3.6073    0.0000 C   0  0  0  0  0  0  0  0  0  0  0  0
    1.2135   -2.7256    0.0000 N   0  0  0  0  0  0  0  0  0  0  0  0
    0.7500   -1.2990    0.0000 C   0  0  0  0  0  0  0  0  0  0  0  0
    1.5000    0.0000    0.0000 C   0  0  0  0  0  0  0  0  0  0  0  0
    0.7500    1.2990    0.0000 C   0  0  0  0  0  0  0  0  0  0  0  0
   -0.7500    1.2990    0.0000 C   0  0  0  0  0  0  0  0  0  0  0  0
   -1.5000    0.0000    0.0000 C   0  0  0  0  0  0  0  0  0  0  0  0
   -0.7500   -1.2990    0.0000 N   0  0  0  0  0  0  0  0  0  0  0  0
   -0.0000   -5.1073    0.0000 C   0  0  0  0  0  0  0  0  0  0  0  0
   -1.2990   -5.8573    0.0000 C   0  0  0  0  0  0  0  0  0  0  0  0
   -1.2990   -7.3573    0.0000 C   0  0  0  0  0  0  0  0  0  0  0  0
   -0.0000   -8.1073    0.0000 C   0  0  0  0  0  0  0  0  0  0  0  0
    1.2990   -7.3573    0.0000 C   0  0  0  0  0  0  0  0  0  0  0  0
    1.2990   -5.8573    0.0000 C   0  0  0  0  0  0  0  0  0  0  0  0
    2.5981   -8.1073    0.0000 C   0  0  0  0  0  0  0  0  0  0  0  0
    3.8971   -7.3573    0.0000 O   0  0  0  0  0  0  0  0  0  0  0  0
    2.5981   -9.6073    0.0000 N   0  0  0  0  0  0  0  0  0  0  0  0
    3.8971  -10.3573    0.0000 C   0  0  0  0  0  0  0  0  0  0  0  0
    3.8971  -11.8573    0.0000 C   0  0  0  0  0  0  0  0  0  0  0  0
    5.1962  -12.6073    0.0000 C   0  0  0  0  0  0  0  0  0  0  0  0
    6.4952  -11.8573    0.0000 C   0  0  0  0  0  0  0  0  0  0  0  0
    6.4952  -10.3573    0.0000 C   0  0  0  0  0  0  0  0  0  0  0  0
    5.1962   -9.6073    0.0000 C   0  0  0  0  0  0  0  0  0  0  0  0
    5.1962   -8.1073    0.0000 F   0  0  0  0  0  0  0  0  0  0  0  0
   -4.5577    0.2855    0.0000 C   0  0  0  0  0  0  0  0  0  0  0  0
   -4.2458    1.7527    0.0000 C   0  0  0  0  0  0  0  0  0  0  0  0
  1  2  1  0
  2  3  1  0
  3  4  1  0
  4  5  1  0
  5  6  1  0
  6  7  1  0
  7  8  1  0
  6  9  1  0
  9 10  2  0
 10 11  1  0
 11 12  2  0
 12 13  1  0
 13 14  1  0
 14 15  2  0
 15 16  1  0
 16 17  2  0
 17 18  1  0
 18 19  2  0
 18 20  1  0
 20 21  2  0
 21 22  1  0
 22 23  2  0
 23 24  1  0
 24 25  2  0
 25 26  1  0
 26 27  2  0
 27 28  1  0
 21 29  1  0
 29 30  2  0
 30 31  1  0
 31 32  2  0
 32 33  1  0
 33 34  2  0
 33 35  1  0
 35 36  2  0
 35 37  1  0
 37 38  1  0
 38 39  2  0
 39 40  1  0
 40 41  2  0
 41 42  1  0
 42 43  2  0
 43 44  1  0
 12 45  1  0
 45 46  2  0
  8  3  1  0
 46  9  1  0
 19 14  1  0
 28 20  1  0
 28 23  1  0
 34 29  1  0
 43 38  1  0
M  END
>  <Molecule>  (443) 
CHEMBL1981725

>  <Standard Type>  (443) 
Ki

>  <Standard Relation>  (443) 
>

>  <Standard Value>  (443) 
1584.89

>  <Standard Units>  (443) 
nM

>  <pChEMBL Value>  (443) 
nan

>  <Comment>  (443) 
inactive

>  <Compound Key>  (443) 
SID103904418

>  <Assay>  (443) 
CHEMBL1963742

>  <Assay Description>  (443) 
PUBCHEM_BIOASSAY: Navigating the Kinome. (Class of assay: other) Panel member name: JAK3

>  <BAO Format>  (443) 
assay format

>  <Target>  (443) 
CHEMBL2148

>  <Target Pref. Name>  (443) 
Tyrosine-protein kinase JAK3

>  <Target Organism>  (443) 
Homo sapiens

>  <Target Type>  (443) 
SINGLE PROTEIN

>  <Document>  (443) 
CHEMBL1201862

>  <Source>  (443) 
PubChem BioAssays

>  <Max Phase>  (443) 
0

>  <#Ro5 Violations>  (443) 
2

>  <Molecular Weight>  (443) 
612.71

>  <Ligand Efficiency BEI>  (443) 
nan

>  <Ligand Efficiency LE>  (443) 
nan

>  <Ligand Efficiency LLE>  (443) 
nan

>  <Ligand Efficiency SEI>  (443) 
nan

>  <ALogP>  (443) 
6.74

>  <Assay Organism>  (443) 
nan

>  <Assay Tissue ChEMBL ID>  (443) 
nan

>  <Assay Tissue Name>  (443) 
nan

>  <Assay Cell Type>  (443) 
nan

>  <Assay Subcellular Fraction>  (443) 
nan

>  <Organism Tax ID>  (443) 
9606

>  <BAO Format ID>  (443) 
BAO_0000019

>  <Published Type>  (443) 
nan

>  <Published Relation>  (443) 
nan

>  <Published Value>  (443) 
nan

>  <Published Units>  (443) 
nan

>  <Canonical Smiles>  (443) 
CCN1CCN(CC1)c2ccc(Nc3nccc(n3)c4c(nc5ccccn45)c6cccc(c6)C(=O)Nc7ccccc7F)cc2

>  <Data Validity Comment>  (443) 
nan

>  <Document Journal>  (443) 
nan

>  <Document Year>  (443) 
nan

>  <SRC ID>  (443) 
7

>  <UO Units>  (443) 
UO_0000065

>  <Potential Duplicate>  (443) 
False

>  <Class>  (443) 
0

$$$$

     RDKit          2D

 20 23  0  0  0  0  0  0  0  0999 V2000
   -0.0000   -5.1073    0.0000 O   0  0  0  0  0  0  0  0  0  0  0  0
   -0.0000   -3.6073    0.0000 C   0  0  0  0  0  0  0  0  0  0  0  0
    1.2135   -2.7256    0.0000 N   0  0  0  0  0  0  0  0  0  0  0  0
    0.7500   -1.2990    0.0000 C   0  0  0  0  0  0  0  0  0  0  0  0
    1.5000    0.0000    0.0000 C   0  0  0  0  0  0  0  0  0  0  0  0
    0.7500    1.2990    0.0000 C   0  0  0  0  0  0  0  0  0  0  0  0
   -0.7500    1.2990    0.0000 C   0  0  0  0  0  0  0  0  0  0  0  0
   -1.5000    0.0000    0.0000 C   0  0  0  0  0  0  0  0  0  0  0  0
   -0.7500   -1.2990    0.0000 C   0  0  0  0  0  0  0  0  0  0  0  0
   -1.2135   -2.7256    0.0000 C   0  0  0  0  0  0  0  0  0  0  0  0
   -2.6401   -3.1891    0.0000 C   0  0  0  0  0  0  0  0  0  0  0  0
   -2.9520   -4.6564    0.0000 C   0  0  0  0  0  0  0  0  0  0  0  0
   -1.9483   -5.7711    0.0000 C   0  0  0  0  0  0  0  0  0  0  0  0
   -2.6983   -7.0701    0.0000 N   0  0  0  0  0  0  0  0  0  0  0  0
   -4.1655   -6.7583    0.0000 C   0  0  0  0  0  0  0  0  0  0  0  0
   -5.3790   -7.6399    0.0000 C   0  0  0  0  0  0  0  0  0  0  0  0
   -6.7493   -7.0298    0.0000 C   0  0  0  0  0  0  0  0  0  0  0  0
   -6.9061   -5.5380    0.0000 C   0  0  0  0  0  0  0  0  0  0  0  0
   -5.6926   -4.6564    0.0000 C   0  0  0  0  0  0  0  0  0  0  0  0
   -4.3223   -5.2665    0.0000 C   0  0  0  0  0  0  0  0  0  0  0  0
  1  2  2  0
  2  3  1  0
  3  4  1  0
  4  5  2  0
  5  6  1  0
  6  7  2  0
  7  8  1  0
  8  9  2  0
  9 10  1  0
 10 11  2  3
 11 12  1  0
 12 13  2  0
 13 14  1  0
 14 15  1  0
 15 16  2  0
 16 17  1  0
 17 18  2  0
 18 19  1  0
 19 20  2  0
 10  2  1  0
  9  4  1  0
 20 12  1  0
 20 15  1  0
M  END
>  <Molecule>  (444) 
CHEMBL1986590

>  <Standard Type>  (444) 
Ki

>  <Standard Relation>  (444) 
>

>  <Standard Value>  (444) 
5011.87

>  <Standard Units>  (444) 
nM

>  <pChEMBL Value>  (444) 
nan

>  <Comment>  (444) 
inactive

>  <Compound Key>  (444) 
SID103905109

>  <Assay>  (444) 
CHEMBL1963742

>  <Assay Description>  (444) 
PUBCHEM_BIOASSAY: Navigating the Kinome. (Class of assay: other) Panel member name: JAK3

>  <BAO Format>  (444) 
assay format

>  <Target>  (444) 
CHEMBL2148

>  <Target Pref. Name>  (444) 
Tyrosine-protein kinase JAK3

>  <Target Organism>  (444) 
Homo sapiens

>  <Target Type>  (444) 
SINGLE PROTEIN

>  <Document>  (444) 
CHEMBL1201862

>  <Source>  (444) 
PubChem BioAssays

>  <Max Phase>  (444) 
0

>  <#Ro5 Violations>  (444) 
0

>  <Molecular Weight>  (444) 
260.3

>  <Ligand Efficiency BEI>  (444) 
nan

>  <Ligand Efficiency LE>  (444) 
nan

>  <Ligand Efficiency LLE>  (444) 
nan

>  <Ligand Efficiency SEI>  (444) 
nan

>  <ALogP>  (444) 
3.66

>  <Assay Organism>  (444) 
nan

>  <Assay Tissue ChEMBL ID>  (444) 
nan

>  <Assay Tissue Name>  (444) 
nan

>  <Assay Cell Type>  (444) 
nan

>  <Assay Subcellular Fraction>  (444) 
nan

>  <Organism Tax ID>  (444) 
9606

>  <BAO Format ID>  (444) 
BAO_0000019

>  <Published Type>  (444) 
nan

>  <Published Relation>  (444) 
nan

>  <Published Value>  (444) 
nan

>  <Published Units>  (444) 
nan

>  <Canonical Smiles>  (444) 
O=C1Nc2ccccc2C1=Cc3c[nH]c4ccccc34

>  <Data Validity Comment>  (444) 
nan

>  <Document Journal>  (444) 
nan

>  <Document Year>  (444) 
nan

>  <SRC ID>  (444) 
7

>  <UO Units>  (444) 
UO_0000065

>  <Potential Duplicate>  (444) 
False

>  <Class>  (444) 
0

$$$$

     RDKit          2D

 15 17  0  0  0  0  0  0  0  0999 V2000
   -6.4268    0.3631    0.0000 C   0  0  0  0  0  0  0  0  0  0  0  0
   -6.1149    1.8303    0.0000 C   0  0  0  0  0  0  0  0  0  0  0  0
   -4.6883    2.2939    0.0000 C   0  0  0  0  0  0  0  0  0  0  0  0
   -3.5736    1.2902    0.0000 C   0  0  0  0  0  0  0  0  0  0  0  0
   -3.8855   -0.1771    0.0000 C   0  0  0  0  0  0  0  0  0  0  0  0
   -5.3120   -0.6406    0.0000 C   0  0  0  0  0  0  0  0  0  0  0  0
   -2.1470    1.7537    0.0000 C   0  0  0  0  0  0  0  0  0  0  0  0
   -1.8351    3.2209    0.0000 C   0  0  0  0  0  0  0  0  0  0  0  0
   -0.4086    3.6844    0.0000 C   0  0  0  0  0  0  0  0  0  0  0  0
    0.7062    2.6807    0.0000 N   0  0  0  0  0  0  0  0  0  0  0  0
    0.3943    1.2135    0.0000 C   0  0  0  0  0  0  0  0  0  0  0  0
    1.2760    0.0000    0.0000 N   0  0  0  0  0  0  0  0  0  0  0  0
    0.3943   -1.2135    0.0000 C   0  0  0  0  0  0  0  0  0  0  0  0
   -1.0323   -0.7500    0.0000 C   0  0  0  0  0  0  0  0  0  0  0  0
   -1.0323    0.7500    0.0000 C   0  0  0  0  0  0  0  0  0  0  0  0
  1  2  2  0
  2  3  1  0
  3  4  2  0
  4  5  1  0
  5  6  2  0
  4  7  1  0
  7  8  2  0
  8  9  1  0
  9 10  2  0
 10 11  1  0
 11 12  1  0
 12 13  1  0
 13 14  2  0
 14 15  1  0
  6  1  1  0
 15  7  1  0
 15 11  2  0
M  END
>  <Molecule>  (445) 
CHEMBL482538

>  <Standard Type>  (445) 
Ki

>  <Standard Relation>  (445) 
=

>  <Standard Value>  (445) 
19952.62

>  <Standard Units>  (445) 
nM

>  <pChEMBL Value>  (445) 
4.7

>  <Comment>  (445) 
active

>  <Compound Key>  (445) 
SID103904198

>  <Assay>  (445) 
CHEMBL1963742

>  <Assay Description>  (445) 
PUBCHEM_BIOASSAY: Navigating the Kinome. (Class of assay: other) Panel member name: JAK3

>  <BAO Format>  (445) 
assay format

>  <Target>  (445) 
CHEMBL2148

>  <Target Pref. Name>  (445) 
Tyrosine-protein kinase JAK3

>  <Target Organism>  (445) 
Homo sapiens

>  <Target Type>  (445) 
SINGLE PROTEIN

>  <Document>  (445) 
CHEMBL1201862

>  <Source>  (445) 
PubChem BioAssays

>  <Max Phase>  (445) 
0

>  <#Ro5 Violations>  (445) 
0

>  <Molecular Weight>  (445) 
194.24

>  <Ligand Efficiency BEI>  (445) 
nan

>  <Ligand Efficiency LE>  (445) 
nan

>  <Ligand Efficiency LLE>  (445) 
nan

>  <Ligand Efficiency SEI>  (445) 
nan

>  <ALogP>  (445) 
3.23

>  <Assay Organism>  (445) 
nan

>  <Assay Tissue ChEMBL ID>  (445) 
nan

>  <Assay Tissue Name>  (445) 
nan

>  <Assay Cell Type>  (445) 
nan

>  <Assay Subcellular Fraction>  (445) 
nan

>  <Organism Tax ID>  (445) 
9606

>  <BAO Format ID>  (445) 
BAO_0000019

>  <Published Type>  (445) 
nan

>  <Published Relation>  (445) 
nan

>  <Published Value>  (445) 
nan

>  <Published Units>  (445) 
nan

>  <Canonical Smiles>  (445) 
c1ccc(cc1)c2ccnc3[nH]ccc23

>  <Data Validity Comment>  (445) 
nan

>  <Document Journal>  (445) 
nan

>  <Document Year>  (445) 
nan

>  <SRC ID>  (445) 
7

>  <UO Units>  (445) 
UO_0000065

>  <Potential Duplicate>  (445) 
False

>  <Class>  (445) 
1

$$$$

     RDKit          2D

 22 24  0  0  0  0  0  0  0  0999 V2000
    6.3579   -8.4259    0.0000 C   0  0  0  0  0  0  0  0  0  0  0  0
    6.2011   -6.9341    0.0000 O   0  0  0  0  0  0  0  0  0  0  0  0
    4.8308   -6.3240    0.0000 C   0  0  0  0  0  0  0  0  0  0  0  0
    4.6740   -4.8322    0.0000 C   0  0  0  0  0  0  0  0  0  0  0  0
    3.3037   -4.2221    0.0000 N   0  0  0  0  0  0  0  0  0  0  0  0
    2.9918   -2.7549    0.0000 C   0  0  0  0  0  0  0  0  0  0  0  0
    1.5000   -2.5981    0.0000 C   0  0  0  0  0  0  0  0  0  0  0  0
    0.7500   -1.2990    0.0000 C   0  0  0  0  0  0  0  0  0  0  0  0
    1.5000    0.0000    0.0000 C   0  0  0  0  0  0  0  0  0  0  0  0
    0.7500    1.2990    0.0000 C   0  0  0  0  0  0  0  0  0  0  0  0
   -0.7500    1.2990    0.0000 N   0  0  0  0  0  0  0  0  0  0  0  0
   -1.5000    0.0000    0.0000 C   0  0  0  0  0  0  0  0  0  0  0  0
   -0.7500   -1.2990    0.0000 N   0  0  0  0  0  0  0  0  0  0  0  0
    0.8899   -3.9684    0.0000 C   0  0  0  0  0  0  0  0  0  0  0  0
    2.0046   -4.9721    0.0000 N   0  0  0  0  0  0  0  0  0  0  0  0
   -0.5773   -4.2803    0.0000 C   0  0  0  0  0  0  0  0  0  0  0  0
   -1.5810   -3.1655    0.0000 C   0  0  0  0  0  0  0  0  0  0  0  0
   -3.0482   -3.4774    0.0000 C   0  0  0  0  0  0  0  0  0  0  0  0
   -3.5118   -4.9040    0.0000 C   0  0  0  0  0  0  0  0  0  0  0  0
   -4.9790   -5.2159    0.0000 Cl  0  0  0  0  0  0  0  0  0  0  0  0
   -2.5081   -6.0187    0.0000 C   0  0  0  0  0  0  0  0  0  0  0  0
   -1.0409   -5.7068    0.0000 C   0  0  0  0  0  0  0  0  0  0  0  0
  1  2  1  0
  2  3  1  0
  3  4  1  0
  4  5  1  0
  5  6  1  0
  6  7  2  0
  7  8  1  0
  8  9  2  0
  9 10  1  0
 10 11  2  0
 11 12  1  0
 12 13  2  0
  7 14  1  0
 14 15  2  0
 14 16  1  0
 16 17  2  0
 17 18  1  0
 18 19  2  0
 19 20  1  0
 19 21  1  0
 21 22  2  0
 15  5  1  0
 13  8  1  0
 22 16  1  0
M  END
>  <Molecule>  (446) 
CHEMBL1982866

>  <Standard Type>  (446) 
Ki

>  <Standard Relation>  (446) 
>

>  <Standard Value>  (446) 
1584.89

>  <Standard Units>  (446) 
nM

>  <pChEMBL Value>  (446) 
nan

>  <Comment>  (446) 
inactive

>  <Compound Key>  (446) 
SID103905540

>  <Assay>  (446) 
CHEMBL1963742

>  <Assay Description>  (446) 
PUBCHEM_BIOASSAY: Navigating the Kinome. (Class of assay: other) Panel member name: JAK3

>  <BAO Format>  (446) 
assay format

>  <Target>  (446) 
CHEMBL2148

>  <Target Pref. Name>  (446) 
Tyrosine-protein kinase JAK3

>  <Target Organism>  (446) 
Homo sapiens

>  <Target Type>  (446) 
SINGLE PROTEIN

>  <Document>  (446) 
CHEMBL1201862

>  <Source>  (446) 
PubChem BioAssays

>  <Max Phase>  (446) 
0

>  <#Ro5 Violations>  (446) 
0

>  <Molecular Weight>  (446) 
314.78

>  <Ligand Efficiency BEI>  (446) 
nan

>  <Ligand Efficiency LE>  (446) 
nan

>  <Ligand Efficiency LLE>  (446) 
nan

>  <Ligand Efficiency SEI>  (446) 
nan

>  <ALogP>  (446) 
3.31

>  <Assay Organism>  (446) 
nan

>  <Assay Tissue ChEMBL ID>  (446) 
nan

>  <Assay Tissue Name>  (446) 
nan

>  <Assay Cell Type>  (446) 
nan

>  <Assay Subcellular Fraction>  (446) 
nan

>  <Organism Tax ID>  (446) 
9606

>  <BAO Format ID>  (446) 
BAO_0000019

>  <Published Type>  (446) 
nan

>  <Published Relation>  (446) 
nan

>  <Published Value>  (446) 
nan

>  <Published Units>  (446) 
nan

>  <Canonical Smiles>  (446) 
COCCn1cc(c2ccncn2)c(n1)c3ccc(Cl)cc3

>  <Data Validity Comment>  (446) 
nan

>  <Document Journal>  (446) 
nan

>  <Document Year>  (446) 
nan

>  <SRC ID>  (446) 
7

>  <UO Units>  (446) 
UO_0000065

>  <Potential Duplicate>  (446) 
False

>  <Class>  (446) 
0

$$$$

     RDKit          2D

 22 24  0  0  0  0  0  0  0  0999 V2000
   -0.0782   -4.9129    0.0000 C   0  0  0  0  0  0  0  0  0  0  0  0
    1.4050   -5.1365    0.0000 C   0  0  0  0  0  0  0  0  0  0  0  0
    1.8472   -6.5698    0.0000 C   0  0  0  0  0  0  0  0  0  0  0  0
    3.2435   -7.1178    0.0000 N   0  0  0  0  0  0  0  0  0  0  0  0
    4.5425   -6.3678    0.0000 C   0  0  0  0  0  0  0  0  0  0  0  0
    4.7661   -4.8846    0.0000 C   0  0  0  0  0  0  0  0  0  0  0  0
    3.7458   -3.7850    0.0000 C   0  0  0  0  0  0  0  0  0  0  0  0
    2.2500   -3.8971    0.0000 N   0  0  0  0  0  0  0  0  0  0  0  0
    1.5000   -2.5981    0.0000 S   0  0  0  0  0  0  0  0  0  0  0  0
    2.7990   -1.8481    0.0000 O   0  0  0  0  0  0  0  0  0  0  0  0
    0.2010   -3.3481    0.0000 O   0  0  0  0  0  0  0  0  0  0  0  0
    0.7500   -1.2990    0.0000 C   0  0  0  0  0  0  0  0  0  0  0  0
    1.5000    0.0000    0.0000 C   0  0  0  0  0  0  0  0  0  0  0  0
    0.7500    1.2990    0.0000 C   0  0  0  0  0  0  0  0  0  0  0  0
   -0.7500    1.2990    0.0000 C   0  0  0  0  0  0  0  0  0  0  0  0
   -1.5000    0.0000    0.0000 C   0  0  0  0  0  0  0  0  0  0  0  0
   -3.0000    0.0000    0.0000 C   0  0  0  0  0  0  0  0  0  0  0  0
   -3.7500   -1.2990    0.0000 N   0  0  0  0  0  0  0  0  0  0  0  0
   -3.0000   -2.5981    0.0000 C   0  0  0  0  0  0  0  0  0  0  0  0
   -1.5000   -2.5981    0.0000 C   0  0  0  0  0  0  0  0  0  0  0  0
   -0.7500   -3.8971    0.0000 C   0  0  0  0  0  0  0  0  0  0  0  0
   -0.7500   -1.2990    0.0000 C   0  0  0  0  0  0  0  0  0  0  0  0
  1  2  1  0
  2  3  1  0
  3  4  1  0
  4  5  1  0
  5  6  1  0
  6  7  1  0
  7  8  1  0
  8  9  1  0
  9 10  2  0
  9 11  2  0
  9 12  1  0
 12 13  2  0
 13 14  1  0
 14 15  2  0
 15 16  1  0
 16 17  2  0
 17 18  1  0
 18 19  2  0
 19 20  1  0
 20 21  1  0
 20 22  2  0
  8  2  1  0
 22 12  1  0
 22 16  1  0
M  END
>  <Molecule>  (447) 
CHEMBL1082440

>  <Standard Type>  (447) 
Ki

>  <Standard Relation>  (447) 
>

>  <Standard Value>  (447) 
1258.93

>  <Standard Units>  (447) 
nM

>  <pChEMBL Value>  (447) 
nan

>  <Comment>  (447) 
inactive

>  <Compound Key>  (447) 
SID103905676

>  <Assay>  (447) 
CHEMBL1963742

>  <Assay Description>  (447) 
PUBCHEM_BIOASSAY: Navigating the Kinome. (Class of assay: other) Panel member name: JAK3

>  <BAO Format>  (447) 
assay format

>  <Target>  (447) 
CHEMBL2148

>  <Target Pref. Name>  (447) 
Tyrosine-protein kinase JAK3

>  <Target Organism>  (447) 
Homo sapiens

>  <Target Type>  (447) 
SINGLE PROTEIN

>  <Document>  (447) 
CHEMBL1201862

>  <Source>  (447) 
PubChem BioAssays

>  <Max Phase>  (447) 
0

>  <#Ro5 Violations>  (447) 
0

>  <Molecular Weight>  (447) 
319.43

>  <Ligand Efficiency BEI>  (447) 
nan

>  <Ligand Efficiency LE>  (447) 
nan

>  <Ligand Efficiency LLE>  (447) 
nan

>  <Ligand Efficiency SEI>  (447) 
nan

>  <ALogP>  (447) 
1.92

>  <Assay Organism>  (447) 
nan

>  <Assay Tissue ChEMBL ID>  (447) 
nan

>  <Assay Tissue Name>  (447) 
nan

>  <Assay Cell Type>  (447) 
nan

>  <Assay Subcellular Fraction>  (447) 
nan

>  <Organism Tax ID>  (447) 
9606

>  <BAO Format ID>  (447) 
BAO_0000019

>  <Published Type>  (447) 
nan

>  <Published Relation>  (447) 
nan

>  <Published Value>  (447) 
nan

>  <Published Units>  (447) 
nan

>  <Canonical Smiles>  (447) 
CC1CNCCCN1S(=O)(=O)c2cccc3cncc(C)c23

>  <Data Validity Comment>  (447) 
nan

>  <Document Journal>  (447) 
nan

>  <Document Year>  (447) 
nan

>  <SRC ID>  (447) 
7

>  <UO Units>  (447) 
UO_0000065

>  <Potential Duplicate>  (447) 
False

>  <Class>  (447) 
0

$$$$

     RDKit          2D

 29 31  0  0  0  0  0  0  0  0999 V2000
    3.0000    0.0000    0.0000 C   0  0  0  0  0  0  0  0  0  0  0  0
    1.5000    0.0000    0.0000 C   0  0  0  0  0  0  0  0  0  0  0  0
    0.7500   -1.2990    0.0000 C   0  0  0  0  0  0  0  0  0  0  0  0
   -0.7500   -1.2990    0.0000 C   0  0  0  0  0  0  0  0  0  0  0  0
   -1.5000   -2.5981    0.0000 Cl  0  0  0  0  0  0  0  0  0  0  0  0
   -1.5000    0.0000    0.0000 C   0  0  0  0  0  0  0  0  0  0  0  0
   -0.7500    1.2990    0.0000 C   0  0  0  0  0  0  0  0  0  0  0  0
    0.7500    1.2990    0.0000 C   0  0  0  0  0  0  0  0  0  0  0  0
    1.5000    2.5981    0.0000 N   0  0  0  0  0  0  0  0  0  0  0  0
    0.7500    3.8971    0.0000 C   0  0  0  0  0  0  0  0  0  0  0  0
   -0.7500    3.8971    0.0000 S   0  0  0  0  0  0  0  0  0  0  0  0
    1.5000    5.1962    0.0000 N   0  0  0  0  0  0  0  0  0  0  0  0
    0.7500    6.4952    0.0000 N   0  0  0  0  0  0  0  0  0  0  0  0
    1.5000    7.7942    0.0000 C   0  0  0  0  0  0  0  0  0  0  0  0
    3.0000    7.7942    0.0000 O   0  0  0  0  0  0  0  0  0  0  0  0
    0.7500    9.0933    0.0000 C   0  0  0  0  0  0  0  0  0  0  0  0
    0.0000   10.3923    0.0000 O   0  0  0  0  0  0  0  0  0  0  0  0
   -0.5490    8.3433    0.0000 C   0  0  0  0  0  0  0  0  0  0  0  0
   -1.8481    9.0933    0.0000 C   0  0  0  0  0  0  0  0  0  0  0  0
   -3.1471    8.3433    0.0000 C   0  0  0  0  0  0  0  0  0  0  0  0
   -3.1471    6.8433    0.0000 C   0  0  0  0  0  0  0  0  0  0  0  0
   -1.8481    6.0933    0.0000 C   0  0  0  0  0  0  0  0  0  0  0  0
   -0.5490    6.8433    0.0000 C   0  0  0  0  0  0  0  0  0  0  0  0
    2.0490    9.8433    0.0000 C   0  0  0  0  0  0  0  0  0  0  0  0
    3.3481    9.0933    0.0000 C   0  0  0  0  0  0  0  0  0  0  0  0
    4.6471    9.8433    0.0000 C   0  0  0  0  0  0  0  0  0  0  0  0
    4.6471   11.3433    0.0000 C   0  0  0  0  0  0  0  0  0  0  0  0
    3.3481   12.0933    0.0000 C   0  0  0  0  0  0  0  0  0  0  0  0
    2.0490   11.3433    0.0000 C   0  0  0  0  0  0  0  0  0  0  0  0
  1  2  1  0
  2  3  2  0
  3  4  1  0
  4  5  1  0
  4  6  2  0
  6  7  1  0
  7  8  2  0
  8  9  1  0
  9 10  1  0
 10 11  2  0
 10 12  1  0
 12 13  1  0
 13 14  1  0
 14 15  2  0
 14 16  1  0
 16 17  1  0
 16 18  1  0
 18 19  2  0
 19 20  1  0
 20 21  2  0
 21 22  1  0
 22 23  2  0
 16 24  1  0
 24 25  2  0
 25 26  1  0
 26 27  2  0
 27 28  1  0
 28 29  2  0
  8  2  1  0
 23 18  1  0
 29 24  1  0
M  END
>  <Molecule>  (448) 
CHEMBL1988173

>  <Standard Type>  (448) 
Ki

>  <Standard Relation>  (448) 
>

>  <Standard Value>  (448) 
1584.89

>  <Standard Units>  (448) 
nM

>  <pChEMBL Value>  (448) 
nan

>  <Comment>  (448) 
inactive

>  <Compound Key>  (448) 
SID103904448

>  <Assay>  (448) 
CHEMBL1963742

>  <Assay Description>  (448) 
PUBCHEM_BIOASSAY: Navigating the Kinome. (Class of assay: other) Panel member name: JAK3

>  <BAO Format>  (448) 
assay format

>  <Target>  (448) 
CHEMBL2148

>  <Target Pref. Name>  (448) 
Tyrosine-protein kinase JAK3

>  <Target Organism>  (448) 
Homo sapiens

>  <Target Type>  (448) 
SINGLE PROTEIN

>  <Document>  (448) 
CHEMBL1201862

>  <Source>  (448) 
PubChem BioAssays

>  <Max Phase>  (448) 
0

>  <#Ro5 Violations>  (448) 
0

>  <Molecular Weight>  (448) 
425.94

>  <Ligand Efficiency BEI>  (448) 
nan

>  <Ligand Efficiency LE>  (448) 
nan

>  <Ligand Efficiency LLE>  (448) 
nan

>  <Ligand Efficiency SEI>  (448) 
nan

>  <ALogP>  (448) 
3.9

>  <Assay Organism>  (448) 
nan

>  <Assay Tissue ChEMBL ID>  (448) 
nan

>  <Assay Tissue Name>  (448) 
nan

>  <Assay Cell Type>  (448) 
nan

>  <Assay Subcellular Fraction>  (448) 
nan

>  <Organism Tax ID>  (448) 
9606

>  <BAO Format ID>  (448) 
BAO_0000019

>  <Published Type>  (448) 
nan

>  <Published Relation>  (448) 
nan

>  <Published Value>  (448) 
nan

>  <Published Units>  (448) 
nan

>  <Canonical Smiles>  (448) 
Cc1cc(Cl)ccc1NC(=S)NNC(=O)C(O)(c2ccccc2)c3ccccc3

>  <Data Validity Comment>  (448) 
nan

>  <Document Journal>  (448) 
nan

>  <Document Year>  (448) 
nan

>  <SRC ID>  (448) 
7

>  <UO Units>  (448) 
UO_0000065

>  <Potential Duplicate>  (448) 
False

>  <Class>  (448) 
0

$$$$

     RDKit          2D

 18 19  0  0  0  0  0  0  0  0999 V2000
    5.2500   -1.2990    0.0000 C   0  0  0  0  0  0  0  0  0  0  0  0
    3.7500   -1.2990    0.0000 C   0  0  0  0  0  0  0  0  0  0  0  0
    3.0000   -2.5981    0.0000 C   0  0  0  0  0  0  0  0  0  0  0  0
    3.0000    0.0000    0.0000 N   0  0  0  0  0  0  0  0  0  0  0  0
    1.5000    0.0000    0.0000 C   0  0  0  0  0  0  0  0  0  0  0  0
    0.7500   -1.2990    0.0000 N   0  0  0  0  0  0  0  0  0  0  0  0
   -0.7500   -1.2990    0.0000 C   0  0  0  0  0  0  0  0  0  0  0  0
   -1.5000    0.0000    0.0000 C   0  0  0  0  0  0  0  0  0  0  0  0
   -3.0000    0.0000    0.0000 Br  0  0  0  0  0  0  0  0  0  0  0  0
   -0.7500    1.2990    0.0000 C   0  0  0  0  0  0  0  0  0  0  0  0
   -1.5000    2.5981    0.0000 N   0  0  0  0  0  0  0  0  0  0  0  0
   -0.7500    3.8971    0.0000 C   0  0  0  0  0  0  0  0  0  0  0  0
   -1.3601    5.2674    0.0000 N   0  0  0  0  0  0  0  0  0  0  0  0
   -0.2454    6.2711    0.0000 C   0  0  0  0  0  0  0  0  0  0  0  0
    1.0537    5.5211    0.0000 C   0  0  0  0  0  0  0  0  0  0  0  0
    2.4240    6.1312    0.0000 C   0  0  0  0  0  0  0  0  0  0  0  0
    0.7418    4.0539    0.0000 S   0  0  0  0  0  0  0  0  0  0  0  0
    0.7500    1.2990    0.0000 N   0  0  0  0  0  0  0  0  0  0  0  0
  1  2  1  0
  2  3  1  0
  2  4  1  0
  4  5  1  0
  5  6  2  0
  6  7  1  0
  7  8  2  0
  8  9  1  0
  8 10  1  0
 10 11  1  0
 11 12  1  0
 12 13  2  0
 13 14  1  0
 14 15  2  0
 15 16  1  0
 15 17  1  0
 10 18  2  0
 18  5  1  0
 17 12  1  0
M  END
>  <Molecule>  (449) 
CHEMBL1973013

>  <Standard Type>  (449) 
Ki

>  <Standard Relation>  (449) 
>

>  <Standard Value>  (449) 
5011.87

>  <Standard Units>  (449) 
nM

>  <pChEMBL Value>  (449) 
nan

>  <Comment>  (449) 
inactive

>  <Compound Key>  (449) 
SID103904935

>  <Assay>  (449) 
CHEMBL1963742

>  <Assay Description>  (449) 
PUBCHEM_BIOASSAY: Navigating the Kinome. (Class of assay: other) Panel member name: JAK3

>  <BAO Format>  (449) 
assay format

>  <Target>  (449) 
CHEMBL2148

>  <Target Pref. Name>  (449) 
Tyrosine-protein kinase JAK3

>  <Target Organism>  (449) 
Homo sapiens

>  <Target Type>  (449) 
SINGLE PROTEIN

>  <Document>  (449) 
CHEMBL1201862

>  <Source>  (449) 
PubChem BioAssays

>  <Max Phase>  (449) 
0

>  <#Ro5 Violations>  (449) 
0

>  <Molecular Weight>  (449) 
328.24

>  <Ligand Efficiency BEI>  (449) 
nan

>  <Ligand Efficiency LE>  (449) 
nan

>  <Ligand Efficiency LLE>  (449) 
nan

>  <Ligand Efficiency SEI>  (449) 
nan

>  <ALogP>  (449) 
3.57

>  <Assay Organism>  (449) 
nan

>  <Assay Tissue ChEMBL ID>  (449) 
nan

>  <Assay Tissue Name>  (449) 
nan

>  <Assay Cell Type>  (449) 
nan

>  <Assay Subcellular Fraction>  (449) 
nan

>  <Organism Tax ID>  (449) 
9606

>  <BAO Format ID>  (449) 
BAO_0000019

>  <Published Type>  (449) 
nan

>  <Published Relation>  (449) 
nan

>  <Published Value>  (449) 
nan

>  <Published Units>  (449) 
nan

>  <Canonical Smiles>  (449) 
CC(C)Nc1ncc(Br)c(Nc2ncc(C)s2)n1

>  <Data Validity Comment>  (449) 
nan

>  <Document Journal>  (449) 
nan

>  <Document Year>  (449) 
nan

>  <SRC ID>  (449) 
7

>  <UO Units>  (449) 
UO_0000065

>  <Potential Duplicate>  (449) 
False

>  <Class>  (449) 
0

$$$$

     RDKit          2D

 31 35  0  0  0  0  0  0  0  0999 V2000
   -8.6583   -6.5105    0.0000 Cl  0  0  0  0  0  0  0  0  0  0  0  0
   -7.2317   -6.0469    0.0000 C   0  0  0  0  0  0  0  0  0  0  0  0
   -6.9199   -4.5797    0.0000 C   0  0  0  0  0  0  0  0  0  0  0  0
   -5.4933   -4.1162    0.0000 C   0  0  0  0  0  0  0  0  0  0  0  0
   -4.3786   -5.1199    0.0000 C   0  0  0  0  0  0  0  0  0  0  0  0
   -4.6904   -6.5871    0.0000 C   0  0  0  0  0  0  0  0  0  0  0  0
   -6.1170   -7.0506    0.0000 C   0  0  0  0  0  0  0  0  0  0  0  0
   -2.9520   -4.6564    0.0000 C   0  0  0  0  0  0  0  0  0  0  0  0
   -1.8373   -5.6601    0.0000 O   0  0  0  0  0  0  0  0  0  0  0  0
   -2.6401   -3.1891    0.0000 N   0  0  0  0  0  0  0  0  0  0  0  0
   -1.2135   -2.7256    0.0000 C   0  0  0  0  0  0  0  0  0  0  0  0
    0.0000   -3.6073    0.0000 N   0  0  0  0  0  0  0  0  0  0  0  0
    1.2135   -2.7256    0.0000 N   0  0  0  0  0  0  0  0  0  0  0  0
    0.7500   -1.2990    0.0000 C   0  0  0  0  0  0  0  0  0  0  0  0
    1.5000    0.0000    0.0000 C   0  0  0  0  0  0  0  0  0  0  0  0
    0.7500    1.2990    0.0000 C   0  0  0  0  0  0  0  0  0  0  0  0
   -0.7500    1.2990    0.0000 C   0  0  0  0  0  0  0  0  0  0  0  0
   -1.5000    0.0000    0.0000 C   0  0  0  0  0  0  0  0  0  0  0  0
   -0.7500   -1.2990    0.0000 C   0  0  0  0  0  0  0  0  0  0  0  0
   -1.5000    2.5981    0.0000 C   0  0  0  0  0  0  0  0  0  0  0  0
   -2.9918    2.7549    0.0000 C   0  0  0  0  0  0  0  0  0  0  0  0
   -3.3037    4.2221    0.0000 N   0  0  0  0  0  0  0  0  0  0  0  0
   -4.6740    4.8322    0.0000 C   0  0  0  0  0  0  0  0  0  0  0  0
   -4.8308    6.3240    0.0000 C   0  0  0  0  0  0  0  0  0  0  0  0
   -3.6172    7.2057    0.0000 C   0  0  0  0  0  0  0  0  0  0  0  0
   -3.7740    8.6974    0.0000 C   0  0  0  0  0  0  0  0  0  0  0  0
   -5.1443    9.3075    0.0000 C   0  0  0  0  0  0  0  0  0  0  0  0
   -6.3579    8.4259    0.0000 C   0  0  0  0  0  0  0  0  0  0  0  0
   -6.2011    6.9341    0.0000 C   0  0  0  0  0  0  0  0  0  0  0  0
   -2.0046    4.9721    0.0000 N   0  0  0  0  0  0  0  0  0  0  0  0
   -0.8899    3.9684    0.0000 N   0  0  0  0  0  0  0  0  0  0  0  0
  1  2  1  0
  2  3  2  0
  3  4  1  0
  4  5  2  0
  5  6  1  0
  6  7  2  0
  5  8  1  0
  8  9  2  0
  8 10  1  0
 10 11  1  0
 11 12  2  0
 12 13  1  0
 13 14  1  0
 14 15  2  0
 15 16  1  0
 16 17  2  0
 17 18  1  0
 18 19  2  0
 17 20  1  0
 20 21  2  0
 21 22  1  0
 22 23  1  0
 23 24  1  0
 24 25  2  0
 25 26  1  0
 26 27  2  0
 27 28  1  0
 28 29  2  0
 22 30  1  0
 30 31  2  0
  7  2  1  0
 19 11  1  0
 19 14  1  0
 31 20  1  0
 29 24  1  0
M  END
>  <Molecule>  (450) 
CHEMBL1987073

>  <Standard Type>  (450) 
Ki

>  <Standard Relation>  (450) 
>

>  <Standard Value>  (450) 
5011.87

>  <Standard Units>  (450) 
nM

>  <pChEMBL Value>  (450) 
nan

>  <Comment>  (450) 
inactive

>  <Compound Key>  (450) 
SID103904542

>  <Assay>  (450) 
CHEMBL1963742

>  <Assay Description>  (450) 
PUBCHEM_BIOASSAY: Navigating the Kinome. (Class of assay: other) Panel member name: JAK3

>  <BAO Format>  (450) 
assay format

>  <Target>  (450) 
CHEMBL2148

>  <Target Pref. Name>  (450) 
Tyrosine-protein kinase JAK3

>  <Target Organism>  (450) 
Homo sapiens

>  <Target Type>  (450) 
SINGLE PROTEIN

>  <Document>  (450) 
CHEMBL1201862

>  <Source>  (450) 
PubChem BioAssays

>  <Max Phase>  (450) 
0

>  <#Ro5 Violations>  (450) 
0

>  <Molecular Weight>  (450) 
428.88

>  <Ligand Efficiency BEI>  (450) 
nan

>  <Ligand Efficiency LE>  (450) 
nan

>  <Ligand Efficiency LLE>  (450) 
nan

>  <Ligand Efficiency SEI>  (450) 
nan

>  <ALogP>  (450) 
4.78

>  <Assay Organism>  (450) 
nan

>  <Assay Tissue ChEMBL ID>  (450) 
nan

>  <Assay Tissue Name>  (450) 
nan

>  <Assay Cell Type>  (450) 
nan

>  <Assay Subcellular Fraction>  (450) 
nan

>  <Organism Tax ID>  (450) 
9606

>  <BAO Format ID>  (450) 
BAO_0000019

>  <Published Type>  (450) 
nan

>  <Published Relation>  (450) 
nan

>  <Published Value>  (450) 
nan

>  <Published Units>  (450) 
nan

>  <Canonical Smiles>  (450) 
Clc1ccc(cc1)C(=O)Nc2n[nH]c3ccc(cc23)c4cn(Cc5ccccc5)nn4

>  <Data Validity Comment>  (450) 
nan

>  <Document Journal>  (450) 
nan

>  <Document Year>  (450) 
nan

>  <SRC ID>  (450) 
7

>  <UO Units>  (450) 
UO_0000065

>  <Potential Duplicate>  (450) 
False

>  <Class>  (450) 
0

$$$$

     RDKit          2D

 30 33  0  0  0  0  0  0  0  0999 V2000
   -9.5075    8.2384    0.0000 C   0  0  0  0  0  0  0  0  0  0  0  0
   -8.3928    7.2347    0.0000 N   0  0  0  0  0  0  0  0  0  0  0  0
   -6.9662    7.6982    0.0000 C   0  0  0  0  0  0  0  0  0  0  0  0
   -8.7047    5.7675    0.0000 C   0  0  0  0  0  0  0  0  0  0  0  0
   -7.5900    4.7638    0.0000 C   0  0  0  0  0  0  0  0  0  0  0  0
   -6.1634    5.2273    0.0000 O   0  0  0  0  0  0  0  0  0  0  0  0
   -7.9018    3.2966    0.0000 N   0  0  0  0  0  0  0  0  0  0  0  0
   -6.7871    2.2929    0.0000 C   0  0  0  0  0  0  0  0  0  0  0  0
   -5.3605    2.7564    0.0000 C   0  0  0  0  0  0  0  0  0  0  0  0
   -4.2458    1.7527    0.0000 C   0  0  0  0  0  0  0  0  0  0  0  0
   -4.5577    0.2855    0.0000 C   0  0  0  0  0  0  0  0  0  0  0  0
   -5.9843   -0.1781    0.0000 C   0  0  0  0  0  0  0  0  0  0  0  0
   -7.0990    0.8256    0.0000 C   0  0  0  0  0  0  0  0  0  0  0  0
   -6.2961   -1.6453    0.0000 N   0  0  0  0  0  0  0  0  0  0  0  0
   -5.1814   -2.6490    0.0000 C   0  0  0  0  0  0  0  0  0  0  0  0
   -5.4933   -4.1162    0.0000 N   0  0  0  0  0  0  0  0  0  0  0  0
   -4.3786   -5.1199    0.0000 C   0  0  0  0  0  0  0  0  0  0  0  0
   -4.6904   -6.5871    0.0000 Cl  0  0  0  0  0  0  0  0  0  0  0  0
   -2.9520   -4.6564    0.0000 C   0  0  0  0  0  0  0  0  0  0  0  0
   -2.6401   -3.1891    0.0000 C   0  0  0  0  0  0  0  0  0  0  0  0
   -3.7548   -2.1855    0.0000 N   0  0  0  0  0  0  0  0  0  0  0  0
   -1.2135   -2.7256    0.0000 C   0  0  0  0  0  0  0  0  0  0  0  0
    0.0000   -3.6073    0.0000 C   0  0  0  0  0  0  0  0  0  0  0  0
    1.2135   -2.7256    0.0000 N   0  0  0  0  0  0  0  0  0  0  0  0
    0.7500   -1.2990    0.0000 C   0  0  0  0  0  0  0  0  0  0  0  0
    1.5000    0.0000    0.0000 N   0  0  0  0  0  0  0  0  0  0  0  0
    0.7500    1.2990    0.0000 C   0  0  0  0  0  0  0  0  0  0  0  0
   -0.7500    1.2990    0.0000 C   0  0  0  0  0  0  0  0  0  0  0  0
   -1.5000    0.0000    0.0000 C   0  0  0  0  0  0  0  0  0  0  0  0
   -0.7500   -1.2990    0.0000 C   0  0  0  0  0  0  0  0  0  0  0  0
  1  2  1  0
  2  3  1  0
  2  4  1  0
  4  5  1  0
  5  6  2  0
  5  7  1  0
  7  8  1  0
  8  9  1  0
  9 10  1  0
 10 11  1  0
 11 12  1  0
 12 13  1  0
 12 14  1  0
 14 15  1  0
 15 16  2  0
 16 17  1  0
 17 18  1  0
 17 19  2  0
 19 20  1  0
 20 21  2  0
 20 22  1  0
 22 23  2  0
 23 24  1  0
 24 25  1  0
 25 26  2  0
 26 27  1  0
 27 28  2  0
 28 29  1  0
 29 30  2  0
 13  8  1  0
 21 15  1  0
 30 22  1  0
 30 25  1  0
M  END
>  <Molecule>  (451) 
CHEMBL1995712

>  <Standard Type>  (451) 
Ki

>  <Standard Relation>  (451) 
=

>  <Standard Value>  (451) 
2511.89

>  <Standard Units>  (451) 
nM

>  <pChEMBL Value>  (451) 
5.6

>  <Comment>  (451) 
active

>  <Compound Key>  (451) 
SID103904254

>  <Assay>  (451) 
CHEMBL1963742

>  <Assay Description>  (451) 
PUBCHEM_BIOASSAY: Navigating the Kinome. (Class of assay: other) Panel member name: JAK3

>  <BAO Format>  (451) 
assay format

>  <Target>  (451) 
CHEMBL2148

>  <Target Pref. Name>  (451) 
Tyrosine-protein kinase JAK3

>  <Target Organism>  (451) 
Homo sapiens

>  <Target Type>  (451) 
SINGLE PROTEIN

>  <Document>  (451) 
CHEMBL1201862

>  <Source>  (451) 
PubChem BioAssays

>  <Max Phase>  (451) 
0

>  <#Ro5 Violations>  (451) 
0

>  <Molecular Weight>  (451) 
427.94

>  <Ligand Efficiency BEI>  (451) 
nan

>  <Ligand Efficiency LE>  (451) 
nan

>  <Ligand Efficiency LLE>  (451) 
nan

>  <Ligand Efficiency SEI>  (451) 
nan

>  <ALogP>  (451) 
3.07

>  <Assay Organism>  (451) 
nan

>  <Assay Tissue ChEMBL ID>  (451) 
nan

>  <Assay Tissue Name>  (451) 
nan

>  <Assay Cell Type>  (451) 
nan

>  <Assay Subcellular Fraction>  (451) 
nan

>  <Organism Tax ID>  (451) 
9606

>  <BAO Format ID>  (451) 
BAO_0000019

>  <Published Type>  (451) 
nan

>  <Published Relation>  (451) 
nan

>  <Published Value>  (451) 
nan

>  <Published Units>  (451) 
nan

>  <Canonical Smiles>  (451) 
CN(C)CC(=O)NC1CCCC(C1)Nc2nc(Cl)cc(n2)c3c[nH]c4ncccc34

>  <Data Validity Comment>  (451) 
nan

>  <Document Journal>  (451) 
nan

>  <Document Year>  (451) 
nan

>  <SRC ID>  (451) 
7

>  <UO Units>  (451) 
UO_0000065

>  <Potential Duplicate>  (451) 
False

>  <Class>  (451) 
1

$$$$

     RDKit          2D

 17 19  0  0  0  0  0  0  0  0999 V2000
   -1.0152   -8.4216    0.0000 I   0  0  0  0  0  0  0  0  0  0  0  0
   -1.1273   -6.9258    0.0000 C   0  0  0  0  0  0  0  0  0  0  0  0
    0.1121   -6.0808    0.0000 C   0  0  0  0  0  0  0  0  0  0  0  0
    0.0000   -4.5850    0.0000 C   0  0  0  0  0  0  0  0  0  0  0  0
    1.3515   -3.9342    0.0000 C   0  0  0  0  0  0  0  0  0  0  0  0
    2.5242   -4.8694    0.0000 O   0  0  0  0  0  0  0  0  0  0  0  0
    1.6852   -2.4718    0.0000 N   0  0  0  0  0  0  0  0  0  0  0  0
    0.7500   -1.2990    0.0000 C   0  0  0  0  0  0  0  0  0  0  0  0
    1.5000    0.0000    0.0000 C   0  0  0  0  0  0  0  0  0  0  0  0
    0.7500    1.2990    0.0000 C   0  0  0  0  0  0  0  0  0  0  0  0
   -0.7500    1.2990    0.0000 C   0  0  0  0  0  0  0  0  0  0  0  0
   -1.5000    0.0000    0.0000 C   0  0  0  0  0  0  0  0  0  0  0  0
   -0.7500   -1.2990    0.0000 C   0  0  0  0  0  0  0  0  0  0  0  0
   -1.6852   -2.4718    0.0000 N   0  0  0  0  0  0  0  0  0  0  0  0
   -1.3515   -3.9342    0.0000 C   0  0  0  0  0  0  0  0  0  0  0  0
   -2.5908   -4.7792    0.0000 N   0  0  0  0  0  0  0  0  0  0  0  0
   -2.4787   -6.2750    0.0000 N   0  0  0  0  0  0  0  0  0  0  0  0
  1  2  1  0
  2  3  2  0
  3  4  1  0
  4  5  1  0
  5  6  2  0
  5  7  1  0
  7  8  1  0
  8  9  2  0
  9 10  1  0
 10 11  2  0
 11 12  1  0
 12 13  2  0
 13 14  1  0
 14 15  1  0
 15 16  1  0
 16 17  2  0
 17  2  1  0
 15  4  2  0
 13  8  1  0
M  END
>  <Molecule>  (452) 
CHEMBL1977346

>  <Standard Type>  (452) 
Ki

>  <Standard Relation>  (452) 
>

>  <Standard Value>  (452) 
1584.89

>  <Standard Units>  (452) 
nM

>  <pChEMBL Value>  (452) 
nan

>  <Comment>  (452) 
inactive

>  <Compound Key>  (452) 
SID103905414

>  <Assay>  (452) 
CHEMBL1963742

>  <Assay Description>  (452) 
PUBCHEM_BIOASSAY: Navigating the Kinome. (Class of assay: other) Panel member name: JAK3

>  <BAO Format>  (452) 
assay format

>  <Target>  (452) 
CHEMBL2148

>  <Target Pref. Name>  (452) 
Tyrosine-protein kinase JAK3

>  <Target Organism>  (452) 
Homo sapiens

>  <Target Type>  (452) 
SINGLE PROTEIN

>  <Document>  (452) 
CHEMBL1201862

>  <Source>  (452) 
PubChem BioAssays

>  <Max Phase>  (452) 
0

>  <#Ro5 Violations>  (452) 
0

>  <Molecular Weight>  (452) 
338.11

>  <Ligand Efficiency BEI>  (452) 
nan

>  <Ligand Efficiency LE>  (452) 
nan

>  <Ligand Efficiency LLE>  (452) 
nan

>  <Ligand Efficiency SEI>  (452) 
nan

>  <ALogP>  (452) 
2.39

>  <Assay Organism>  (452) 
nan

>  <Assay Tissue ChEMBL ID>  (452) 
nan

>  <Assay Tissue Name>  (452) 
nan

>  <Assay Cell Type>  (452) 
nan

>  <Assay Subcellular Fraction>  (452) 
nan

>  <Organism Tax ID>  (452) 
9606

>  <BAO Format ID>  (452) 
BAO_0000019

>  <Published Type>  (452) 
nan

>  <Published Relation>  (452) 
nan

>  <Published Value>  (452) 
nan

>  <Published Units>  (452) 
nan

>  <Canonical Smiles>  (452) 
Ic1cc2C(=O)Nc3ccccc3Nc2nn1

>  <Data Validity Comment>  (452) 
nan

>  <Document Journal>  (452) 
nan

>  <Document Year>  (452) 
nan

>  <SRC ID>  (452) 
7

>  <UO Units>  (452) 
UO_0000065

>  <Potential Duplicate>  (452) 
False

>  <Class>  (452) 
0

$$$$

     RDKit          2D

 25 28  0  0  0  0  0  0  0  0999 V2000
   -3.5736    1.2902    0.0000 C   0  0  0  0  0  0  0  0  0  0  0  0
   -2.1470    1.7537    0.0000 C   0  0  0  0  0  0  0  0  0  0  0  0
   -1.8351    3.2209    0.0000 C   0  0  0  0  0  0  0  0  0  0  0  0
   -0.4086    3.6844    0.0000 C   0  0  0  0  0  0  0  0  0  0  0  0
   -0.0967    5.1517    0.0000 O   0  0  0  0  0  0  0  0  0  0  0  0
    0.7062    2.6807    0.0000 N   0  0  0  0  0  0  0  0  0  0  0  0
    0.3943    1.2135    0.0000 C   0  0  0  0  0  0  0  0  0  0  0  0
    1.2760    0.0000    0.0000 N   0  0  0  0  0  0  0  0  0  0  0  0
    0.3943   -1.2135    0.0000 N   0  0  0  0  0  0  0  0  0  0  0  0
   -1.0323   -0.7500    0.0000 C   0  0  0  0  0  0  0  0  0  0  0  0
   -2.2458   -1.6317    0.0000 C   0  0  0  0  0  0  0  0  0  0  0  0
   -3.6161   -1.0216    0.0000 C   0  0  0  0  0  0  0  0  0  0  0  0
   -4.8297   -1.9033    0.0000 C   0  0  0  0  0  0  0  0  0  0  0  0
   -4.6729   -3.3950    0.0000 C   0  0  0  0  0  0  0  0  0  0  0  0
   -3.3025   -4.0051    0.0000 C   0  0  0  0  0  0  0  0  0  0  0  0
   -2.0890   -3.1235    0.0000 C   0  0  0  0  0  0  0  0  0  0  0  0
   -3.1458   -5.4969    0.0000 C   0  0  0  0  0  0  0  0  0  0  0  0
   -4.3593   -6.3786    0.0000 C   0  0  0  0  0  0  0  0  0  0  0  0
   -4.2025   -7.8704    0.0000 C   0  0  0  0  0  0  0  0  0  0  0  0
   -2.8322   -8.4805    0.0000 C   0  0  0  0  0  0  0  0  0  0  0  0
   -1.6186   -7.5988    0.0000 C   0  0  0  0  0  0  0  0  0  0  0  0
   -1.7754   -6.1070    0.0000 C   0  0  0  0  0  0  0  0  0  0  0  0
   -2.6754   -9.9723    0.0000 C   0  0  0  0  0  0  0  0  0  0  0  0
   -2.5186  -11.4641    0.0000 N   0  0  0  0  0  0  0  0  0  0  0  0
   -1.0323    0.7500    0.0000 C   0  0  0  0  0  0  0  0  0  0  0  0
  1  2  1  0
  2  3  2  0
  3  4  1  0
  4  5  1  0
  4  6  2  0
  6  7  1  0
  7  8  1  0
  8  9  1  0
  9 10  2  0
 10 11  1  0
 11 12  2  0
 12 13  1  0
 13 14  2  0
 14 15  1  0
 15 16  2  0
 15 17  1  0
 17 18  2  0
 18 19  1  0
 19 20  2  0
 20 21  1  0
 21 22  2  0
 20 23  1  0
 23 24  3  0
 10 25  1  0
 25  2  1  0
 25  7  2  0
 16 11  1  0
 22 17  1  0
M  END
>  <Molecule>  (453) 
CHEMBL2000724

>  <Standard Type>  (453) 
Ki

>  <Standard Relation>  (453) 
>

>  <Standard Value>  (453) 
5011.87

>  <Standard Units>  (453) 
nM

>  <pChEMBL Value>  (453) 
nan

>  <Comment>  (453) 
inactive

>  <Compound Key>  (453) 
SID103905400

>  <Assay>  (453) 
CHEMBL1963742

>  <Assay Description>  (453) 
PUBCHEM_BIOASSAY: Navigating the Kinome. (Class of assay: other) Panel member name: JAK3

>  <BAO Format>  (453) 
assay format

>  <Target>  (453) 
CHEMBL2148

>  <Target Pref. Name>  (453) 
Tyrosine-protein kinase JAK3

>  <Target Organism>  (453) 
Homo sapiens

>  <Target Type>  (453) 
SINGLE PROTEIN

>  <Document>  (453) 
CHEMBL1201862

>  <Source>  (453) 
PubChem BioAssays

>  <Max Phase>  (453) 
0

>  <#Ro5 Violations>  (453) 
0

>  <Molecular Weight>  (453) 
326.36

>  <Ligand Efficiency BEI>  (453) 
nan

>  <Ligand Efficiency LE>  (453) 
nan

>  <Ligand Efficiency LLE>  (453) 
nan

>  <Ligand Efficiency SEI>  (453) 
nan

>  <ALogP>  (453) 
4.18

>  <Assay Organism>  (453) 
nan

>  <Assay Tissue ChEMBL ID>  (453) 
nan

>  <Assay Tissue Name>  (453) 
nan

>  <Assay Cell Type>  (453) 
nan

>  <Assay Subcellular Fraction>  (453) 
nan

>  <Organism Tax ID>  (453) 
9606

>  <BAO Format ID>  (453) 
BAO_0000019

>  <Published Type>  (453) 
nan

>  <Published Relation>  (453) 
nan

>  <Published Value>  (453) 
nan

>  <Published Units>  (453) 
nan

>  <Canonical Smiles>  (453) 
Cc1cc(O)nc2[nH]nc(c3cccc(c3)c4ccc(cc4)C#N)c12

>  <Data Validity Comment>  (453) 
nan

>  <Document Journal>  (453) 
nan

>  <Document Year>  (453) 
nan

>  <SRC ID>  (453) 
7

>  <UO Units>  (453) 
UO_0000065

>  <Potential Duplicate>  (453) 
False

>  <Class>  (453) 
0

$$$$

     RDKit          2D

 21 23  0  0  0  0  0  0  0  0999 V2000
   -2.1766   -4.6157    0.0000 C   0  0  0  0  0  0  0  0  0  0  0  0
   -2.6401   -3.1891    0.0000 C   0  0  0  0  0  0  0  0  0  0  0  0
   -3.1036   -1.7626    0.0000 C   0  0  0  0  0  0  0  0  0  0  0  0
   -4.0667   -3.6527    0.0000 C   0  0  0  0  0  0  0  0  0  0  0  0
   -1.2135   -2.7256    0.0000 N   0  0  0  0  0  0  0  0  0  0  0  0
   -0.0000   -3.6073    0.0000 N   0  0  0  0  0  0  0  0  0  0  0  0
    1.2135   -2.7256    0.0000 C   0  0  0  0  0  0  0  0  0  0  0  0
    2.6401   -3.1891    0.0000 C   0  0  0  0  0  0  0  0  0  0  0  0
    2.9520   -4.6564    0.0000 C   0  0  0  0  0  0  0  0  0  0  0  0
    4.3786   -5.1199    0.0000 C   0  0  0  0  0  0  0  0  0  0  0  0
    5.4933   -4.1162    0.0000 C   0  0  0  0  0  0  0  0  0  0  0  0
    6.9199   -4.5797    0.0000 Cl  0  0  0  0  0  0  0  0  0  0  0  0
    5.1814   -2.6490    0.0000 C   0  0  0  0  0  0  0  0  0  0  0  0
    3.7548   -2.1855    0.0000 C   0  0  0  0  0  0  0  0  0  0  0  0
    0.7500   -1.2990    0.0000 C   0  0  0  0  0  0  0  0  0  0  0  0
    1.5000    0.0000    0.0000 C   0  0  0  0  0  0  0  0  0  0  0  0
    3.0000    0.0000    0.0000 N   0  0  0  0  0  0  0  0  0  0  0  0
    0.7500    1.2990    0.0000 N   0  0  0  0  0  0  0  0  0  0  0  0
   -0.7500    1.2990    0.0000 C   0  0  0  0  0  0  0  0  0  0  0  0
   -1.5000    0.0000    0.0000 N   0  0  0  0  0  0  0  0  0  0  0  0
   -0.7500   -1.2990    0.0000 C   0  0  0  0  0  0  0  0  0  0  0  0
  1  2  1  0
  2  3  1  0
  2  4  1  0
  2  5  1  0
  5  6  1  0
  6  7  2  0
  7  8  1  0
  8  9  2  0
  9 10  1  0
 10 11  2  0
 11 12  1  0
 11 13  1  0
 13 14  2  0
  7 15  1  0
 15 16  2  0
 16 17  1  0
 16 18  1  0
 18 19  2  0
 19 20  1  0
 20 21  2  0
 21  5  1  0
 14  8  1  0
 21 15  1  0
M  END
>  <Molecule>  (454) 
CHEMBL406845

>  <Standard Type>  (454) 
Ki

>  <Standard Relation>  (454) 
>

>  <Standard Value>  (454) 
5011.87

>  <Standard Units>  (454) 
nM

>  <pChEMBL Value>  (454) 
nan

>  <Comment>  (454) 
inactive

>  <Compound Key>  (454) 
SID103904781

>  <Assay>  (454) 
CHEMBL1963742

>  <Assay Description>  (454) 
PUBCHEM_BIOASSAY: Navigating the Kinome. (Class of assay: other) Panel member name: JAK3

>  <BAO Format>  (454) 
assay format

>  <Target>  (454) 
CHEMBL2148

>  <Target Pref. Name>  (454) 
Tyrosine-protein kinase JAK3

>  <Target Organism>  (454) 
Homo sapiens

>  <Target Type>  (454) 
SINGLE PROTEIN

>  <Document>  (454) 
CHEMBL1201862

>  <Source>  (454) 
PubChem BioAssays

>  <Max Phase>  (454) 
0

>  <#Ro5 Violations>  (454) 
0

>  <Molecular Weight>  (454) 
301.78

>  <Ligand Efficiency BEI>  (454) 
nan

>  <Ligand Efficiency LE>  (454) 
nan

>  <Ligand Efficiency LLE>  (454) 
nan

>  <Ligand Efficiency SEI>  (454) 
nan

>  <ALogP>  (454) 
3.48

>  <Assay Organism>  (454) 
nan

>  <Assay Tissue ChEMBL ID>  (454) 
nan

>  <Assay Tissue Name>  (454) 
nan

>  <Assay Cell Type>  (454) 
nan

>  <Assay Subcellular Fraction>  (454) 
nan

>  <Organism Tax ID>  (454) 
9606

>  <BAO Format ID>  (454) 
BAO_0000019

>  <Published Type>  (454) 
nan

>  <Published Relation>  (454) 
nan

>  <Published Value>  (454) 
nan

>  <Published Units>  (454) 
nan

>  <Canonical Smiles>  (454) 
CC(C)(C)n1nc(c2ccc(Cl)cc2)c3c(N)ncnc13

>  <Data Validity Comment>  (454) 
nan

>  <Document Journal>  (454) 
nan

>  <Document Year>  (454) 
nan

>  <SRC ID>  (454) 
7

>  <UO Units>  (454) 
UO_0000065

>  <Potential Duplicate>  (454) 
False

>  <Class>  (454) 
0

$$$$

     RDKit          2D

 27 31  0  0  0  0  0  0  0  0999 V2000
    0.5271    8.0861    0.0000 Cl  0  0  0  0  0  0  0  0  0  0  0  0
   -0.8995    7.6226    0.0000 C   0  0  0  0  0  0  0  0  0  0  0  0
   -1.2114    6.1554    0.0000 C   0  0  0  0  0  0  0  0  0  0  0  0
   -2.6380    5.6918    0.0000 C   0  0  0  0  0  0  0  0  0  0  0  0
   -2.9499    4.2246    0.0000 N   0  0  0  0  0  0  0  0  0  0  0  0
   -1.8351    3.2209    0.0000 C   0  0  0  0  0  0  0  0  0  0  0  0
   -0.4086    3.6844    0.0000 N   0  0  0  0  0  0  0  0  0  0  0  0
    0.7062    2.6807    0.0000 C   0  0  0  0  0  0  0  0  0  0  0  0
    2.1328    3.1443    0.0000 N   0  0  0  0  0  0  0  0  0  0  0  0
    2.4446    4.6115    0.0000 C   0  0  0  0  0  0  0  0  0  0  0  0
    1.9811    6.0381    0.0000 C   0  0  0  0  0  0  0  0  0  0  0  0
    3.4483    5.7262    0.0000 C   0  0  0  0  0  0  0  0  0  0  0  0
    0.3943    1.2135    0.0000 C   0  0  0  0  0  0  0  0  0  0  0  0
    1.2760    0.0000    0.0000 S   0  0  0  0  0  0  0  0  0  0  0  0
    0.3943   -1.2135    0.0000 C   0  0  0  0  0  0  0  0  0  0  0  0
   -1.0323   -0.7500    0.0000 C   0  0  0  0  0  0  0  0  0  0  0  0
   -1.0323    0.7500    0.0000 C   0  0  0  0  0  0  0  0  0  0  0  0
   -2.1470    1.7537    0.0000 N   0  0  0  0  0  0  0  0  0  0  0  0
   -3.7527    6.6955    0.0000 C   0  0  0  0  0  0  0  0  0  0  0  0
   -3.4408    8.1628    0.0000 C   0  0  0  0  0  0  0  0  0  0  0  0
   -2.0143    8.6263    0.0000 C   0  0  0  0  0  0  0  0  0  0  0  0
   -1.7024   10.0935    0.0000 N   0  0  0  0  0  0  0  0  0  0  0  0
   -0.2758   10.5570    0.0000 C   0  0  0  0  0  0  0  0  0  0  0  0
    0.0361   12.0242    0.0000 C   0  0  0  0  0  0  0  0  0  0  0  0
   -1.0786   13.0279    0.0000 O   0  0  0  0  0  0  0  0  0  0  0  0
   -2.5052   12.5644    0.0000 C   0  0  0  0  0  0  0  0  0  0  0  0
   -2.8171   11.0972    0.0000 C   0  0  0  0  0  0  0  0  0  0  0  0
  1  2  1  0
  2  3  2  0
  3  4  1  0
  4  5  1  0
  5  6  1  0
  6  7  2  0
  7  8  1  0
  8  9  1  0
  9 10  1  0
 10 11  1  0
 11 12  1  0
  8 13  2  0
 13 14  1  0
 14 15  1  0
 15 16  2  0
 16 17  1  0
 17 18  2  0
  4 19  2  0
 19 20  1  0
 20 21  2  0
 21 22  1  0
 22 23  1  0
 23 24  1  0
 24 25  1  0
 25 26  1  0
 26 27  1  0
 21  2  1  0
 18  6  1  0
 12 10  1  0
 17 13  1  0
 27 22  1  0
M  END
>  <Molecule>  (455) 
CHEMBL2002586

>  <Standard Type>  (455) 
Ki

>  <Standard Relation>  (455) 
>

>  <Standard Value>  (455) 
5011.87

>  <Standard Units>  (455) 
nM

>  <pChEMBL Value>  (455) 
nan

>  <Comment>  (455) 
inactive

>  <Compound Key>  (455) 
SID103904731

>  <Assay>  (455) 
CHEMBL1963742

>  <Assay Description>  (455) 
PUBCHEM_BIOASSAY: Navigating the Kinome. (Class of assay: other) Panel member name: JAK3

>  <BAO Format>  (455) 
assay format

>  <Target>  (455) 
CHEMBL2148

>  <Target Pref. Name>  (455) 
Tyrosine-protein kinase JAK3

>  <Target Organism>  (455) 
Homo sapiens

>  <Target Type>  (455) 
SINGLE PROTEIN

>  <Document>  (455) 
CHEMBL1201862

>  <Source>  (455) 
PubChem BioAssays

>  <Max Phase>  (455) 
0

>  <#Ro5 Violations>  (455) 
0

>  <Molecular Weight>  (455) 
401.92

>  <Ligand Efficiency BEI>  (455) 
nan

>  <Ligand Efficiency LE>  (455) 
nan

>  <Ligand Efficiency LLE>  (455) 
nan

>  <Ligand Efficiency SEI>  (455) 
nan

>  <ALogP>  (455) 
4.5

>  <Assay Organism>  (455) 
nan

>  <Assay Tissue ChEMBL ID>  (455) 
nan

>  <Assay Tissue Name>  (455) 
nan

>  <Assay Cell Type>  (455) 
nan

>  <Assay Subcellular Fraction>  (455) 
nan

>  <Organism Tax ID>  (455) 
9606

>  <BAO Format ID>  (455) 
BAO_0000019

>  <Published Type>  (455) 
nan

>  <Published Relation>  (455) 
nan

>  <Published Value>  (455) 
nan

>  <Published Units>  (455) 
nan

>  <Canonical Smiles>  (455) 
Clc1cc(Nc2nc(NC3CC3)c4sccc4n2)ccc1N5CCOCC5

>  <Data Validity Comment>  (455) 
nan

>  <Document Journal>  (455) 
nan

>  <Document Year>  (455) 
nan

>  <SRC ID>  (455) 
7

>  <UO Units>  (455) 
UO_0000065

>  <Potential Duplicate>  (455) 
False

>  <Class>  (455) 
0

$$$$

     RDKit          2D

 33 37  0  0  0  0  0  0  0  0999 V2000
    8.0406   12.1352    0.0000 C   0  0  0  0  0  0  0  0  0  0  0  0
    7.5771   10.7086    0.0000 C   0  0  0  0  0  0  0  0  0  0  0  0
    8.5808    9.5939    0.0000 C   0  0  0  0  0  0  0  0  0  0  0  0
    8.1173    8.1673    0.0000 C   0  0  0  0  0  0  0  0  0  0  0  0
    6.6501    7.8555    0.0000 C   0  0  0  0  0  0  0  0  0  0  0  0
    5.6464    8.9702    0.0000 C   0  0  0  0  0  0  0  0  0  0  0  0
    4.1791    8.6583    0.0000 N   0  0  0  0  0  0  0  0  0  0  0  0
    3.7156    7.2317    0.0000 C   0  0  0  0  0  0  0  0  0  0  0  0
    4.7193    6.1170    0.0000 O   0  0  0  0  0  0  0  0  0  0  0  0
    2.2484    6.9199    0.0000 N   0  0  0  0  0  0  0  0  0  0  0  0
    1.7849    5.4933    0.0000 C   0  0  0  0  0  0  0  0  0  0  0  0
    0.3177    5.1814    0.0000 C   0  0  0  0  0  0  0  0  0  0  0  0
   -0.1459    3.7548    0.0000 C   0  0  0  0  0  0  0  0  0  0  0  0
    0.8578    2.6401    0.0000 C   0  0  0  0  0  0  0  0  0  0  0  0
    2.3250    2.9520    0.0000 C   0  0  0  0  0  0  0  0  0  0  0  0
    2.7886    4.3786    0.0000 C   0  0  0  0  0  0  0  0  0  0  0  0
    0.3943    1.2135    0.0000 C   0  0  0  0  0  0  0  0  0  0  0  0
    1.2760    0.0000    0.0000 C   0  0  0  0  0  0  0  0  0  0  0  0
    0.3943   -1.2135    0.0000 S   0  0  0  0  0  0  0  0  0  0  0  0
   -1.0323   -0.7500    0.0000 C   0  0  0  0  0  0  0  0  0  0  0  0
   -2.3313   -1.5000    0.0000 C   0  0  0  0  0  0  0  0  0  0  0  0
   -3.6304   -0.7500    0.0000 C   0  0  0  0  0  0  0  0  0  0  0  0
   -3.6304    0.7500    0.0000 N   0  0  0  0  0  0  0  0  0  0  0  0
   -2.3313    1.5000    0.0000 C   0  0  0  0  0  0  0  0  0  0  0  0
   -2.3313    3.0000    0.0000 N   0  0  0  0  0  0  0  0  0  0  0  0
   -1.0323    0.7500    0.0000 C   0  0  0  0  0  0  0  0  0  0  0  0
   -2.3313   -3.0000    0.0000 C   0  0  0  0  0  0  0  0  0  0  0  0
   -1.1178   -3.8817    0.0000 C   0  0  0  0  0  0  0  0  0  0  0  0
   -1.5813   -5.3083    0.0000 N   0  0  0  0  0  0  0  0  0  0  0  0
   -3.0813   -5.3083    0.0000 N   0  0  0  0  0  0  0  0  0  0  0  0
   -3.9630   -6.5218    0.0000 C   0  0  0  0  0  0  0  0  0  0  0  0
   -3.5449   -3.8817    0.0000 C   0  0  0  0  0  0  0  0  0  0  0  0
    6.1099   10.3968    0.0000 C   0  0  0  0  0  0  0  0  0  0  0  0
  1  2  1  0
  2  3  2  0
  3  4  1  0
  4  5  2  0
  5  6  1  0
  6  7  1  0
  7  8  1  0
  8  9  2  0
  8 10  1  0
 10 11  1  0
 11 12  2  0
 12 13  1  0
 13 14  2  0
 14 15  1  0
 15 16  2  0
 14 17  1  0
 17 18  2  0
 18 19  1  0
 19 20  1  0
 20 21  2  0
 21 22  1  0
 22 23  2  0
 23 24  1  0
 24 25  1  0
 24 26  2  0
 21 27  1  0
 27 28  1  0
 28 29  2  0
 29 30  1  0
 30 31  1  0
 30 32  1  0
  6 33  2  0
 33  2  1  0
 16 11  1  0
 26 17  1  0
 26 20  1  0
 32 27  2  0
M  END
>  <Molecule>  (456) 
CHEMBL1967116

>  <Standard Type>  (456) 
Ki

>  <Standard Relation>  (456) 
=

>  <Standard Value>  (456) 
125.89

>  <Standard Units>  (456) 
nM

>  <pChEMBL Value>  (456) 
6.9

>  <Comment>  (456) 
active

>  <Compound Key>  (456) 
SID103904313

>  <Assay>  (456) 
CHEMBL1963742

>  <Assay Description>  (456) 
PUBCHEM_BIOASSAY: Navigating the Kinome. (Class of assay: other) Panel member name: JAK3

>  <BAO Format>  (456) 
assay format

>  <Target>  (456) 
CHEMBL2148

>  <Target Pref. Name>  (456) 
Tyrosine-protein kinase JAK3

>  <Target Organism>  (456) 
Homo sapiens

>  <Target Type>  (456) 
SINGLE PROTEIN

>  <Document>  (456) 
CHEMBL1201862

>  <Source>  (456) 
PubChem BioAssays

>  <Max Phase>  (456) 
0

>  <#Ro5 Violations>  (456) 
1

>  <Molecular Weight>  (456) 
454.56

>  <Ligand Efficiency BEI>  (456) 
nan

>  <Ligand Efficiency LE>  (456) 
nan

>  <Ligand Efficiency LLE>  (456) 
nan

>  <Ligand Efficiency SEI>  (456) 
nan

>  <ALogP>  (456) 
5.9

>  <Assay Organism>  (456) 
nan

>  <Assay Tissue ChEMBL ID>  (456) 
nan

>  <Assay Tissue Name>  (456) 
nan

>  <Assay Cell Type>  (456) 
nan

>  <Assay Subcellular Fraction>  (456) 
nan

>  <Organism Tax ID>  (456) 
9606

>  <BAO Format ID>  (456) 
BAO_0000019

>  <Published Type>  (456) 
nan

>  <Published Relation>  (456) 
nan

>  <Published Value>  (456) 
nan

>  <Published Units>  (456) 
nan

>  <Canonical Smiles>  (456) 
Cc1cccc(NC(=O)Nc2ccc(cc2)c3csc4c(cnc(N)c34)c5cnn(C)c5)c1

>  <Data Validity Comment>  (456) 
nan

>  <Document Journal>  (456) 
nan

>  <Document Year>  (456) 
nan

>  <SRC ID>  (456) 
7

>  <UO Units>  (456) 
UO_0000065

>  <Potential Duplicate>  (456) 
False

>  <Class>  (456) 
1

$$$$

     RDKit          2D

 32 37  0  0  0  0  0  0  0  0999 V2000
   -4.6904   -6.5871    0.0000 N   0  0  0  0  0  0  0  0  0  0  0  0
   -4.3786   -5.1199    0.0000 C   0  0  0  0  0  0  0  0  0  0  0  0
   -2.9520   -4.6564    0.0000 C   0  0  0  0  0  0  0  0  0  0  0  0
   -2.6401   -3.1891    0.0000 C   0  0  0  0  0  0  0  0  0  0  0  0
   -1.2135   -2.7256    0.0000 N   0  0  0  0  0  0  0  0  0  0  0  0
   -0.0000   -3.6073    0.0000 C   0  0  0  0  0  0  0  0  0  0  0  0
    1.2135   -2.7256    0.0000 C   0  0  0  0  0  0  0  0  0  0  0  0
    2.6401   -3.1891    0.0000 C   0  0  0  0  0  0  0  0  0  0  0  0
    3.7548   -2.1855    0.0000 C   0  0  0  0  0  0  0  0  0  0  0  0
    5.1814   -2.6490    0.0000 C   0  0  0  0  0  0  0  0  0  0  0  0
    6.2961   -1.6453    0.0000 C   0  0  0  0  0  0  0  0  0  0  0  0
    7.7634   -1.9571    0.0000 C   0  0  0  0  0  0  0  0  0  0  0  0
    8.5134   -0.6581    0.0000 C   0  0  0  0  0  0  0  0  0  0  0  0
    9.9806   -0.3462    0.0000 C   0  0  0  0  0  0  0  0  0  0  0  0
   10.4441    1.0803    0.0000 C   0  0  0  0  0  0  0  0  0  0  0  0
    9.4404    2.1951    0.0000 C   0  0  0  0  0  0  0  0  0  0  0  0
    7.9732    1.8832    0.0000 C   0  0  0  0  0  0  0  0  0  0  0  0
    7.5097    0.4566    0.0000 C   0  0  0  0  0  0  0  0  0  0  0  0
    6.1393   -0.1535    0.0000 S   0  0  0  0  0  0  0  0  0  0  0  0
    5.4933   -4.1162    0.0000 C   0  0  0  0  0  0  0  0  0  0  0  0
    6.7923   -4.8662    0.0000 N   0  0  0  0  0  0  0  0  0  0  0  0
    6.4805   -6.3334    0.0000 N   0  0  0  0  0  0  0  0  0  0  0  0
    4.9887   -6.4902    0.0000 C   0  0  0  0  0  0  0  0  0  0  0  0
    4.3786   -5.1199    0.0000 C   0  0  0  0  0  0  0  0  0  0  0  0
    2.9520   -4.6564    0.0000 C   0  0  0  0  0  0  0  0  0  0  0  0
    0.7500   -1.2990    0.0000 C   0  0  0  0  0  0  0  0  0  0  0  0
    1.5000    0.0000    0.0000 N   0  0  0  0  0  0  0  0  0  0  0  0
    0.7500    1.2990    0.0000 C   0  0  0  0  0  0  0  0  0  0  0  0
    1.5000    2.5981    0.0000 N   0  0  0  0  0  0  0  0  0  0  0  0
   -0.7500    1.2990    0.0000 N   0  0  0  0  0  0  0  0  0  0  0  0
   -1.5000    0.0000    0.0000 C   0  0  0  0  0  0  0  0  0  0  0  0
   -0.7500   -1.2990    0.0000 C   0  0  0  0  0  0  0  0  0  0  0  0
  1  2  1  0
  2  3  1  0
  3  4  1  0
  4  5  1  0
  5  6  1  0
  6  7  2  0
  7  8  1  0
  8  9  2  0
  9 10  1  0
 10 11  1  0
 11 12  2  0
 12 13  1  0
 13 14  2  0
 14 15  1  0
 15 16  2  0
 16 17  1  0
 17 18  2  0
 18 19  1  0
 10 20  2  0
 20 21  1  0
 21 22  1  0
 22 23  2  0
 23 24  1  0
 24 25  2  0
  7 26  1  0
 26 27  2  0
 27 28  1  0
 28 29  1  0
 28 30  2  0
 30 31  1  0
 31 32  2  0
 32  5  1  0
 25  8  1  0
 19 11  1  0
 18 13  1  0
 24 20  1  0
 32 26  1  0
M  END
>  <Molecule>  (457) 
CHEMBL592030

>  <Standard Type>  (457) 
Ki

>  <Standard Relation>  (457) 
>

>  <Standard Value>  (457) 
3981.07

>  <Standard Units>  (457) 
nM

>  <pChEMBL Value>  (457) 
nan

>  <Comment>  (457) 
inactive

>  <Compound Key>  (457) 
SID103904960

>  <Assay>  (457) 
CHEMBL1963742

>  <Assay Description>  (457) 
PUBCHEM_BIOASSAY: Navigating the Kinome. (Class of assay: other) Panel member name: JAK3

>  <BAO Format>  (457) 
assay format

>  <Target>  (457) 
CHEMBL2148

>  <Target Pref. Name>  (457) 
Tyrosine-protein kinase JAK3

>  <Target Organism>  (457) 
Homo sapiens

>  <Target Type>  (457) 
SINGLE PROTEIN

>  <Document>  (457) 
CHEMBL1201862

>  <Source>  (457) 
PubChem BioAssays

>  <Max Phase>  (457) 
0

>  <#Ro5 Violations>  (457) 
0

>  <Molecular Weight>  (457) 
439.55

>  <Ligand Efficiency BEI>  (457) 
nan

>  <Ligand Efficiency LE>  (457) 
nan

>  <Ligand Efficiency LLE>  (457) 
nan

>  <Ligand Efficiency SEI>  (457) 
nan

>  <ALogP>  (457) 
4.79

>  <Assay Organism>  (457) 
nan

>  <Assay Tissue ChEMBL ID>  (457) 
nan

>  <Assay Tissue Name>  (457) 
nan

>  <Assay Cell Type>  (457) 
nan

>  <Assay Subcellular Fraction>  (457) 
nan

>  <Organism Tax ID>  (457) 
9606

>  <BAO Format ID>  (457) 
BAO_0000019

>  <Published Type>  (457) 
nan

>  <Published Relation>  (457) 
nan

>  <Published Value>  (457) 
nan

>  <Published Units>  (457) 
nan

>  <Canonical Smiles>  (457) 
NCCCn1cc(c2cc(c3cc4ccccc4s3)c5[nH]ncc5c2)c6nc(N)ncc16

>  <Data Validity Comment>  (457) 
nan

>  <Document Journal>  (457) 
nan

>  <Document Year>  (457) 
nan

>  <SRC ID>  (457) 
7

>  <UO Units>  (457) 
UO_0000065

>  <Potential Duplicate>  (457) 
False

>  <Class>  (457) 
0

$$$$

     RDKit          2D

 18 20  0  0  0  0  0  0  0  0999 V2000
   -0.6860    6.2961    0.0000 Cl  0  0  0  0  0  0  0  0  0  0  0  0
    0.3177    5.1814    0.0000 C   0  0  0  0  0  0  0  0  0  0  0  0
    1.7849    5.4933    0.0000 C   0  0  0  0  0  0  0  0  0  0  0  0
    2.7886    4.3786    0.0000 C   0  0  0  0  0  0  0  0  0  0  0  0
    2.3250    2.9520    0.0000 C   0  0  0  0  0  0  0  0  0  0  0  0
    0.8578    2.6401    0.0000 C   0  0  0  0  0  0  0  0  0  0  0  0
   -0.1459    3.7548    0.0000 C   0  0  0  0  0  0  0  0  0  0  0  0
    0.3943    1.2135    0.0000 C   0  0  0  0  0  0  0  0  0  0  0  0
    1.2760    0.0000    0.0000 C   0  0  0  0  0  0  0  0  0  0  0  0
    0.3943   -1.2135    0.0000 N   0  0  0  0  0  0  0  0  0  0  0  0
    0.7062   -2.6807    0.0000 C   0  0  0  0  0  0  0  0  0  0  0  0
    2.1328   -3.1443    0.0000 O   0  0  0  0  0  0  0  0  0  0  0  0
   -0.4086   -3.6844    0.0000 N   0  0  0  0  0  0  0  0  0  0  0  0
   -1.8351   -3.2209    0.0000 C   0  0  0  0  0  0  0  0  0  0  0  0
   -2.1470   -1.7537    0.0000 C   0  0  0  0  0  0  0  0  0  0  0  0
   -3.5736   -1.2902    0.0000 I   0  0  0  0  0  0  0  0  0  0  0  0
   -1.0323   -0.7500    0.0000 C   0  0  0  0  0  0  0  0  0  0  0  0
   -1.0323    0.7500    0.0000 N   0  0  0  0  0  0  0  0  0  0  0  0
  1  2  1  0
  2  3  2  0
  3  4  1  0
  4  5  2  0
  5  6  1  0
  6  7  2  0
  6  8  1  0
  8  9  2  0
  9 10  1  0
 10 11  1  0
 11 12  2  0
 11 13  1  0
 13 14  1  0
 14 15  2  0
 15 16  1  0
 15 17  1  0
 17 18  2  0
  7  2  1  0
 18  8  1  0
 17 10  1  0
M  END
>  <Molecule>  (458) 
CHEMBL1982610

>  <Standard Type>  (458) 
Ki

>  <Standard Relation>  (458) 
>

>  <Standard Value>  (458) 
1584.89

>  <Standard Units>  (458) 
nM

>  <pChEMBL Value>  (458) 
nan

>  <Comment>  (458) 
inactive

>  <Compound Key>  (458) 
SID103905053

>  <Assay>  (458) 
CHEMBL1963742

>  <Assay Description>  (458) 
PUBCHEM_BIOASSAY: Navigating the Kinome. (Class of assay: other) Panel member name: JAK3

>  <BAO Format>  (458) 
assay format

>  <Target>  (458) 
CHEMBL2148

>  <Target Pref. Name>  (458) 
Tyrosine-protein kinase JAK3

>  <Target Organism>  (458) 
Homo sapiens

>  <Target Type>  (458) 
SINGLE PROTEIN

>  <Document>  (458) 
CHEMBL1201862

>  <Source>  (458) 
PubChem BioAssays

>  <Max Phase>  (458) 
0

>  <#Ro5 Violations>  (458) 
0

>  <Molecular Weight>  (458) 
371.57

>  <Ligand Efficiency BEI>  (458) 
nan

>  <Ligand Efficiency LE>  (458) 
nan

>  <Ligand Efficiency LLE>  (458) 
nan

>  <Ligand Efficiency SEI>  (458) 
nan

>  <ALogP>  (458) 
2.95

>  <Assay Organism>  (458) 
nan

>  <Assay Tissue ChEMBL ID>  (458) 
nan

>  <Assay Tissue Name>  (458) 
nan

>  <Assay Cell Type>  (458) 
nan

>  <Assay Subcellular Fraction>  (458) 
nan

>  <Organism Tax ID>  (458) 
9606

>  <BAO Format ID>  (458) 
BAO_0000019

>  <Published Type>  (458) 
nan

>  <Published Relation>  (458) 
nan

>  <Published Value>  (458) 
nan

>  <Published Units>  (458) 
nan

>  <Canonical Smiles>  (458) 
Clc1cccc(c1)c2cn3C(=O)NC=C(I)c3n2

>  <Data Validity Comment>  (458) 
nan

>  <Document Journal>  (458) 
nan

>  <Document Year>  (458) 
nan

>  <SRC ID>  (458) 
7

>  <UO Units>  (458) 
UO_0000065

>  <Potential Duplicate>  (458) 
False

>  <Class>  (458) 
0

$$$$

     RDKit          2D

 23 25  0  0  0  0  0  0  0  0999 V2000
   -1.0409   -5.7068    0.0000 N   0  0  0  0  0  0  0  0  0  0  0  0
   -0.5773   -4.2803    0.0000 C   0  0  0  0  0  0  0  0  0  0  0  0
   -1.5810   -3.1655    0.0000 O   0  0  0  0  0  0  0  0  0  0  0  0
    0.8899   -3.9684    0.0000 C   0  0  0  0  0  0  0  0  0  0  0  0
    2.0046   -4.9721    0.0000 C   0  0  0  0  0  0  0  0  0  0  0  0
    3.3037   -4.2221    0.0000 C   0  0  0  0  0  0  0  0  0  0  0  0
    2.9918   -2.7549    0.0000 N   0  0  0  0  0  0  0  0  0  0  0  0
    1.5000   -2.5981    0.0000 C   0  0  0  0  0  0  0  0  0  0  0  0
    0.7500   -1.2990    0.0000 C   0  0  0  0  0  0  0  0  0  0  0  0
   -0.7500   -1.2990    0.0000 C   0  0  0  0  0  0  0  0  0  0  0  0
   -1.5000   -0.0000    0.0000 C   0  0  0  0  0  0  0  0  0  0  0  0
   -0.7500    1.2990    0.0000 C   0  0  0  0  0  0  0  0  0  0  0  0
   -1.5000    2.5981    0.0000 Cl  0  0  0  0  0  0  0  0  0  0  0  0
    0.7500    1.2990    0.0000 C   0  0  0  0  0  0  0  0  0  0  0  0
    1.5000   -0.0000    0.0000 C   0  0  0  0  0  0  0  0  0  0  0  0
    3.0000   -0.0000    0.0000 Cl  0  0  0  0  0  0  0  0  0  0  0  0
    4.6740   -4.8322    0.0000 C   0  0  0  0  0  0  0  0  0  0  0  0
    4.8308   -6.3240    0.0000 C   0  0  0  0  0  0  0  0  0  0  0  0
    6.2011   -6.9341    0.0000 C   0  0  0  0  0  0  0  0  0  0  0  0
    7.4146   -6.0524    0.0000 N   0  0  0  0  0  0  0  0  0  0  0  0
    7.2578   -4.5606    0.0000 C   0  0  0  0  0  0  0  0  0  0  0  0
    8.4713   -3.6789    0.0000 N   0  0  0  0  0  0  0  0  0  0  0  0
    5.8875   -3.9505    0.0000 N   0  0  0  0  0  0  0  0  0  0  0  0
  1  2  1  0
  2  3  2  0
  2  4  1  0
  4  5  1  0
  5  6  2  0
  6  7  1  0
  7  8  1  0
  8  9  1  0
  9 10  2  0
 10 11  1  0
 11 12  2  0
 12 13  1  0
 12 14  1  0
 14 15  2  0
 15 16  1  0
  6 17  1  0
 17 18  2  0
 18 19  1  0
 19 20  2  0
 20 21  1  0
 21 22  1  0
 21 23  2  0
  8  4  2  0
 15  9  1  0
 23 17  1  0
M  END
>  <Molecule>  (459) 
CHEMBL1965660

>  <Standard Type>  (459) 
Ki

>  <Standard Relation>  (459) 
=

>  <Standard Value>  (459) 
1000.0

>  <Standard Units>  (459) 
nM

>  <pChEMBL Value>  (459) 
6.0

>  <Comment>  (459) 
active

>  <Compound Key>  (459) 
SID103904984

>  <Assay>  (459) 
CHEMBL1963742

>  <Assay Description>  (459) 
PUBCHEM_BIOASSAY: Navigating the Kinome. (Class of assay: other) Panel member name: JAK3

>  <BAO Format>  (459) 
assay format

>  <Target>  (459) 
CHEMBL2148

>  <Target Pref. Name>  (459) 
Tyrosine-protein kinase JAK3

>  <Target Organism>  (459) 
Homo sapiens

>  <Target Type>  (459) 
SINGLE PROTEIN

>  <Document>  (459) 
CHEMBL1201862

>  <Source>  (459) 
PubChem BioAssays

>  <Max Phase>  (459) 
0

>  <#Ro5 Violations>  (459) 
0

>  <Molecular Weight>  (459) 
348.19

>  <Ligand Efficiency BEI>  (459) 
nan

>  <Ligand Efficiency LE>  (459) 
nan

>  <Ligand Efficiency LLE>  (459) 
nan

>  <Ligand Efficiency SEI>  (459) 
nan

>  <ALogP>  (459) 
3.13

>  <Assay Organism>  (459) 
nan

>  <Assay Tissue ChEMBL ID>  (459) 
nan

>  <Assay Tissue Name>  (459) 
nan

>  <Assay Cell Type>  (459) 
nan

>  <Assay Subcellular Fraction>  (459) 
nan

>  <Organism Tax ID>  (459) 
9606

>  <BAO Format ID>  (459) 
BAO_0000019

>  <Published Type>  (459) 
nan

>  <Published Relation>  (459) 
nan

>  <Published Value>  (459) 
nan

>  <Published Units>  (459) 
nan

>  <Canonical Smiles>  (459) 
NC(=O)c1cc([nH]c1c2ccc(Cl)cc2Cl)c3ccnc(N)n3

>  <Data Validity Comment>  (459) 
nan

>  <Document Journal>  (459) 
nan

>  <Document Year>  (459) 
nan

>  <SRC ID>  (459) 
7

>  <UO Units>  (459) 
UO_0000065

>  <Potential Duplicate>  (459) 
False

>  <Class>  (459) 
1

$$$$

     RDKit          2D

 29 32  0  0  0  0  0  0  0  0999 V2000
    2.2655   10.0169    0.0000 C   0  0  0  0  0  0  0  0  0  0  0  0
    0.8389    9.5533    0.0000 O   0  0  0  0  0  0  0  0  0  0  0  0
    0.5271    8.0861    0.0000 C   0  0  0  0  0  0  0  0  0  0  0  0
    1.6418    7.0824    0.0000 C   0  0  0  0  0  0  0  0  0  0  0  0
    1.3299    5.6152    0.0000 C   0  0  0  0  0  0  0  0  0  0  0  0
   -0.0967    5.1517    0.0000 C   0  0  0  0  0  0  0  0  0  0  0  0
   -1.2114    6.1554    0.0000 C   0  0  0  0  0  0  0  0  0  0  0  0
   -0.8995    7.6226    0.0000 C   0  0  0  0  0  0  0  0  0  0  0  0
   -2.0143    8.6263    0.0000 O   0  0  0  0  0  0  0  0  0  0  0  0
   -3.4408    8.1628    0.0000 C   0  0  0  0  0  0  0  0  0  0  0  0
   -0.4086    3.6844    0.0000 C   0  0  0  0  0  0  0  0  0  0  0  0
    0.7062    2.6807    0.0000 C   0  0  0  0  0  0  0  0  0  0  0  0
    0.3943    1.2135    0.0000 C   0  0  0  0  0  0  0  0  0  0  0  0
    1.2760    0.0000    0.0000 N   0  0  0  0  0  0  0  0  0  0  0  0
    0.3943   -1.2135    0.0000 C   0  0  0  0  0  0  0  0  0  0  0  0
   -1.0323   -0.7500    0.0000 C   0  0  0  0  0  0  0  0  0  0  0  0
   -1.0323    0.7500    0.0000 N   0  0  0  0  0  0  0  0  0  0  0  0
   -2.1470    1.7537    0.0000 C   0  0  0  0  0  0  0  0  0  0  0  0
   -3.5736    1.2902    0.0000 N   0  0  0  0  0  0  0  0  0  0  0  0
   -4.6883    2.2939    0.0000 C   0  0  0  0  0  0  0  0  0  0  0  0
   -4.3764    3.7611    0.0000 C   0  0  0  0  0  0  0  0  0  0  0  0
   -5.4912    4.7648    0.0000 C   0  0  0  0  0  0  0  0  0  0  0  0
   -6.9177    4.3013    0.0000 C   0  0  0  0  0  0  0  0  0  0  0  0
   -7.2296    2.8340    0.0000 C   0  0  0  0  0  0  0  0  0  0  0  0
   -6.1149    1.8303    0.0000 C   0  0  0  0  0  0  0  0  0  0  0  0
   -6.4268    0.3631    0.0000 C   0  0  0  0  0  0  0  0  0  0  0  0
   -5.3120   -0.6406    0.0000 O   0  0  0  0  0  0  0  0  0  0  0  0
   -7.8533   -0.1004    0.0000 N   0  0  0  0  0  0  0  0  0  0  0  0
   -1.8351    3.2209    0.0000 N   0  0  0  0  0  0  0  0  0  0  0  0
  1  2  1  0
  2  3  1  0
  3  4  2  0
  4  5  1  0
  5  6  2  0
  6  7  1  0
  7  8  2  0
  8  9  1  0
  9 10  1  0
  6 11  1  0
 11 12  2  0
 12 13  1  0
 13 14  2  0
 14 15  1  0
 15 16  2  0
 16 17  1  0
 17 18  1  0
 18 19  1  0
 19 20  1  0
 20 21  2  0
 21 22  1  0
 22 23  2  0
 23 24  1  0
 24 25  2  0
 25 26  1  0
 26 27  2  0
 26 28  1  0
 18 29  2  0
  8  3  1  0
 29 11  1  0
 17 13  1  0
 25 20  1  0
M  END
>  <Molecule>  (460) 
CHEMBL1998112

>  <Standard Type>  (460) 
Ki

>  <Standard Relation>  (460) 
>

>  <Standard Value>  (460) 
1584.89

>  <Standard Units>  (460) 
nM

>  <pChEMBL Value>  (460) 
nan

>  <Comment>  (460) 
inactive

>  <Compound Key>  (460) 
SID103905233

>  <Assay>  (460) 
CHEMBL1963742

>  <Assay Description>  (460) 
PUBCHEM_BIOASSAY: Navigating the Kinome. (Class of assay: other) Panel member name: JAK3

>  <BAO Format>  (460) 
assay format

>  <Target>  (460) 
CHEMBL2148

>  <Target Pref. Name>  (460) 
Tyrosine-protein kinase JAK3

>  <Target Organism>  (460) 
Homo sapiens

>  <Target Type>  (460) 
SINGLE PROTEIN

>  <Document>  (460) 
CHEMBL1201862

>  <Source>  (460) 
PubChem BioAssays

>  <Max Phase>  (460) 
0

>  <#Ro5 Violations>  (460) 
0

>  <Molecular Weight>  (460) 
389.42

>  <Ligand Efficiency BEI>  (460) 
nan

>  <Ligand Efficiency LE>  (460) 
nan

>  <Ligand Efficiency LLE>  (460) 
nan

>  <Ligand Efficiency SEI>  (460) 
nan

>  <ALogP>  (460) 
3.26

>  <Assay Organism>  (460) 
nan

>  <Assay Tissue ChEMBL ID>  (460) 
nan

>  <Assay Tissue Name>  (460) 
nan

>  <Assay Cell Type>  (460) 
nan

>  <Assay Subcellular Fraction>  (460) 
nan

>  <Organism Tax ID>  (460) 
9606

>  <BAO Format ID>  (460) 
BAO_0000019

>  <Published Type>  (460) 
nan

>  <Published Relation>  (460) 
nan

>  <Published Value>  (460) 
nan

>  <Published Units>  (460) 
nan

>  <Canonical Smiles>  (460) 
COc1ccc(cc1OC)c2cc3nccn3c(Nc4ccccc4C(=O)N)n2

>  <Data Validity Comment>  (460) 
nan

>  <Document Journal>  (460) 
nan

>  <Document Year>  (460) 
nan

>  <SRC ID>  (460) 
7

>  <UO Units>  (460) 
UO_0000065

>  <Potential Duplicate>  (460) 
False

>  <Class>  (460) 
0

$$$$

     RDKit          2D

 43 49  0  0  0  0  0  0  0  0999 V2000
    1.9788    6.5212    0.0000 O   0  0  0  0  0  0  0  0  0  0  0  0
    1.5153    7.9478    0.0000 C   0  0  0  0  0  0  0  0  0  0  0  0
    2.5190    9.0625    0.0000 C   0  0  0  0  0  0  0  0  0  0  0  0
    3.9862    8.7506    0.0000 C   0  0  0  0  0  0  0  0  0  0  0  0
    4.4497    7.3241    0.0000 C   0  0  0  0  0  0  0  0  0  0  0  0
    5.9169    7.0122    0.0000 C   0  0  0  0  0  0  0  0  0  0  0  0
    6.9206    8.1269    0.0000 C   0  0  0  0  0  0  0  0  0  0  0  0
    6.4571    9.5535    0.0000 C   0  0  0  0  0  0  0  0  0  0  0  0
    4.9899    9.8654    0.0000 C   0  0  0  0  0  0  0  0  0  0  0  0
    0.0481    8.2597    0.0000 N   0  0  0  0  0  0  0  0  0  0  0  0
   -0.9556    7.1449    0.0000 C   0  0  0  0  0  0  0  0  0  0  0  0
   -2.4229    7.4568    0.0000 C   0  0  0  0  0  0  0  0  0  0  0  0
   -3.4266    6.3421    0.0000 C   0  0  0  0  0  0  0  0  0  0  0  0
   -2.9630    4.9155    0.0000 C   0  0  0  0  0  0  0  0  0  0  0  0
   -1.4958    4.6036    0.0000 C   0  0  0  0  0  0  0  0  0  0  0  0
   -0.4921    5.7184    0.0000 C   0  0  0  0  0  0  0  0  0  0  0  0
   -1.0323    3.1771    0.0000 C   0  0  0  0  0  0  0  0  0  0  0  0
    0.3943    2.7135    0.0000 N   0  0  0  0  0  0  0  0  0  0  0  0
    0.3943    1.2135    0.0000 C   0  0  0  0  0  0  0  0  0  0  0  0
    1.2760    0.0000    0.0000 S   0  0  0  0  0  0  0  0  0  0  0  0
    0.3943   -1.2135    0.0000 C   0  0  0  0  0  0  0  0  0  0  0  0
   -1.0323   -0.7500    0.0000 C   0  0  0  0  0  0  0  0  0  0  0  0
   -1.0323    0.7500    0.0000 N   0  0  0  0  0  0  0  0  0  0  0  0
   -1.9140    1.9635    0.0000 C   0  0  0  0  0  0  0  0  0  0  0  0
   -3.4140    1.9635    0.0000 C   0  0  0  0  0  0  0  0  0  0  0  0
   -4.1640    3.2626    0.0000 C   0  0  0  0  0  0  0  0  0  0  0  0
   -5.6640    3.2626    0.0000 C   0  0  0  0  0  0  0  0  0  0  0  0
   -6.4140    1.9635    0.0000 N   0  0  0  0  0  0  0  0  0  0  0  0
   -5.6640    0.6645    0.0000 C   0  0  0  0  0  0  0  0  0  0  0  0
   -6.4140   -0.6346    0.0000 N   0  0  0  0  0  0  0  0  0  0  0  0
   -7.9140   -0.6346    0.0000 C   0  0  0  0  0  0  0  0  0  0  0  0
   -8.6640    0.6645    0.0000 C   0  0  0  0  0  0  0  0  0  0  0  0
  -10.1640    0.6645    0.0000 C   0  0  0  0  0  0  0  0  0  0  0  0
  -10.9140   -0.6346    0.0000 C   0  0  0  0  0  0  0  0  0  0  0  0
  -10.1640   -1.9336    0.0000 C   0  0  0  0  0  0  0  0  0  0  0  0
   -8.6640   -1.9336    0.0000 C   0  0  0  0  0  0  0  0  0  0  0  0
  -10.9140   -3.2326    0.0000 N   0  0  0  0  0  0  0  0  0  0  0  0
  -12.4140   -3.2326    0.0000 C   0  0  0  0  0  0  0  0  0  0  0  0
  -13.1640   -4.5317    0.0000 C   0  0  0  0  0  0  0  0  0  0  0  0
  -12.4140   -5.8307    0.0000 O   0  0  0  0  0  0  0  0  0  0  0  0
  -10.9140   -5.8307    0.0000 C   0  0  0  0  0  0  0  0  0  0  0  0
  -10.1640   -4.5317    0.0000 C   0  0  0  0  0  0  0  0  0  0  0  0
   -4.1640    0.6645    0.0000 N   0  0  0  0  0  0  0  0  0  0  0  0
  1  2  2  0
  2  3  1  0
  3  4  1  0
  4  5  2  0
  5  6  1  0
  6  7  2  0
  7  8  1  0
  8  9  2  0
  2 10  1  0
 10 11  1  0
 11 12  2  0
 12 13  1  0
 13 14  2  0
 14 15  1  0
 15 16  2  0
 15 17  1  0
 17 18  1  0
 18 19  2  0
 19 20  1  0
 20 21  1  0
 21 22  2  0
 22 23  1  0
 23 24  1  0
 24 25  1  0
 25 26  2  0
 26 27  1  0
 27 28  2  0
 28 29  1  0
 29 30  1  0
 30 31  1  0
 31 32  2  0
 32 33  1  0
 33 34  2  0
 34 35  1  0
 35 36  2  0
 35 37  1  0
 37 38  1  0
 38 39  1  0
 39 40  1  0
 40 41  1  0
 41 42  1  0
 29 43  2  0
  9  4  1  0
 16 11  1  0
 24 17  2  0
 23 19  1  0
 43 25  1  0
 36 31  1  0
 42 37  1  0
M  END
>  <Molecule>  (461) 
CHEMBL1090360

>  <Standard Type>  (461) 
Ki

>  <Standard Relation>  (461) 
>

>  <Standard Value>  (461) 
1584.89

>  <Standard Units>  (461) 
nM

>  <pChEMBL Value>  (461) 
nan

>  <Comment>  (461) 
inactive

>  <Compound Key>  (461) 
SID103904420

>  <Assay>  (461) 
CHEMBL1963742

>  <Assay Description>  (461) 
PUBCHEM_BIOASSAY: Navigating the Kinome. (Class of assay: other) Panel member name: JAK3

>  <BAO Format>  (461) 
assay format

>  <Target>  (461) 
CHEMBL2148

>  <Target Pref. Name>  (461) 
Tyrosine-protein kinase JAK3

>  <Target Organism>  (461) 
Homo sapiens

>  <Target Type>  (461) 
SINGLE PROTEIN

>  <Document>  (461) 
CHEMBL1201862

>  <Source>  (461) 
PubChem BioAssays

>  <Max Phase>  (461) 
0

>  <#Ro5 Violations>  (461) 
2

>  <Molecular Weight>  (461) 
587.71

>  <Ligand Efficiency BEI>  (461) 
nan

>  <Ligand Efficiency LE>  (461) 
nan

>  <Ligand Efficiency LLE>  (461) 
nan

>  <Ligand Efficiency SEI>  (461) 
nan

>  <ALogP>  (461) 
6.28

>  <Assay Organism>  (461) 
nan

>  <Assay Tissue ChEMBL ID>  (461) 
nan

>  <Assay Tissue Name>  (461) 
nan

>  <Assay Cell Type>  (461) 
nan

>  <Assay Subcellular Fraction>  (461) 
nan

>  <Organism Tax ID>  (461) 
9606

>  <BAO Format ID>  (461) 
BAO_0000019

>  <Published Type>  (461) 
nan

>  <Published Relation>  (461) 
nan

>  <Published Value>  (461) 
nan

>  <Published Units>  (461) 
nan

>  <Canonical Smiles>  (461) 
O=C(Cc1ccccc1)Nc2cccc(c2)c3nc4sccn4c3c5ccnc(Nc6cccc(c6)N7CCOCC7)n5

>  <Data Validity Comment>  (461) 
nan

>  <Document Journal>  (461) 
nan

>  <Document Year>  (461) 
nan

>  <SRC ID>  (461) 
7

>  <UO Units>  (461) 
UO_0000065

>  <Potential Duplicate>  (461) 
False

>  <Class>  (461) 
0

$$$$

     RDKit          2D

 31 35  0  0  0  0  0  0  0  0999 V2000
    3.9449  -11.1015    0.0000 N   0  0  0  0  0  0  0  0  0  0  0  0
    3.0632   -9.8880    0.0000 C   0  0  0  0  0  0  0  0  0  0  0  0
    2.1815   -8.6745    0.0000 C   0  0  0  0  0  0  0  0  0  0  0  0
    0.6897   -8.8313    0.0000 C   0  0  0  0  0  0  0  0  0  0  0  0
   -0.1920   -7.6177    0.0000 C   0  0  0  0  0  0  0  0  0  0  0  0
    0.4182   -6.2474    0.0000 C   0  0  0  0  0  0  0  0  0  0  0  0
    1.9099   -6.0906    0.0000 C   0  0  0  0  0  0  0  0  0  0  0  0
    2.7916   -7.3041    0.0000 N   0  0  0  0  0  0  0  0  0  0  0  0
   -0.4635   -5.0339    0.0000 C   0  0  0  0  0  0  0  0  0  0  0  0
   -1.9635   -5.0339    0.0000 N   0  0  0  0  0  0  0  0  0  0  0  0
   -2.4271   -3.6073    0.0000 N   0  0  0  0  0  0  0  0  0  0  0  0
   -1.2135   -2.7256    0.0000 C   0  0  0  0  0  0  0  0  0  0  0  0
   -0.0000   -3.6073    0.0000 C   0  0  0  0  0  0  0  0  0  0  0  0
    1.2135   -2.7256    0.0000 C   0  0  0  0  0  0  0  0  0  0  0  0
    0.7500   -1.2990    0.0000 C   0  0  0  0  0  0  0  0  0  0  0  0
    1.5000    0.0000    0.0000 C   0  0  0  0  0  0  0  0  0  0  0  0
    0.7500    1.2990    0.0000 C   0  0  0  0  0  0  0  0  0  0  0  0
   -0.7500    1.2990    0.0000 C   0  0  0  0  0  0  0  0  0  0  0  0
   -1.5000    2.5981    0.0000 O   0  0  0  0  0  0  0  0  0  0  0  0
   -0.7500    3.8971    0.0000 C   0  0  0  0  0  0  0  0  0  0  0  0
   -1.5000    5.1962    0.0000 C   0  0  0  0  0  0  0  0  0  0  0  0
   -0.7500    6.4952    0.0000 C   0  0  0  0  0  0  0  0  0  0  0  0
   -1.5000    7.7942    0.0000 C   0  0  0  0  0  0  0  0  0  0  0  0
   -0.7500    9.0933    0.0000 N   0  0  0  0  0  0  0  0  0  0  0  0
    0.7500    9.0933    0.0000 C   0  0  0  0  0  0  0  0  0  0  0  0
    1.5000   10.3923    0.0000 C   0  0  0  0  0  0  0  0  0  0  0  0
    0.7500   11.6913    0.0000 O   0  0  0  0  0  0  0  0  0  0  0  0
   -0.7500   11.6913    0.0000 C   0  0  0  0  0  0  0  0  0  0  0  0
   -1.5000   10.3923    0.0000 C   0  0  0  0  0  0  0  0  0  0  0  0
   -1.5000    0.0000    0.0000 C   0  0  0  0  0  0  0  0  0  0  0  0
   -0.7500   -1.2990    0.0000 C   0  0  0  0  0  0  0  0  0  0  0  0
  1  2  3  0
  2  3  1  0
  3  4  2  0
  4  5  1  0
  5  6  2  0
  6  7  1  0
  7  8  2  0
  6  9  1  0
  9 10  2  0
 10 11  1  0
 11 12  1  0
 12 13  2  0
 13 14  1  0
 14 15  1  0
 15 16  2  0
 16 17  1  0
 17 18  2  0
 18 19  1  0
 19 20  1  0
 20 21  1  0
 21 22  1  0
 22 23  1  0
 23 24  1  0
 24 25  1  0
 25 26  1  0
 26 27  1  0
 27 28  1  0
 28 29  1  0
 18 30  1  0
 30 31  2  0
  8  3  1  0
 13  9  1  0
 31 12  1  0
 31 15  1  0
 29 24  1  0
M  END
>  <Molecule>  (462) 
CHEMBL398951

>  <Standard Type>  (462) 
Ki

>  <Standard Relation>  (462) 
>

>  <Standard Value>  (462) 
3981.07

>  <Standard Units>  (462) 
nM

>  <pChEMBL Value>  (462) 
nan

>  <Comment>  (462) 
inactive

>  <Compound Key>  (462) 
SID103904813

>  <Assay>  (462) 
CHEMBL1963742

>  <Assay Description>  (462) 
PUBCHEM_BIOASSAY: Navigating the Kinome. (Class of assay: other) Panel member name: JAK3

>  <BAO Format>  (462) 
assay format

>  <Target>  (462) 
CHEMBL2148

>  <Target Pref. Name>  (462) 
Tyrosine-protein kinase JAK3

>  <Target Organism>  (462) 
Homo sapiens

>  <Target Type>  (462) 
SINGLE PROTEIN

>  <Document>  (462) 
CHEMBL1201862

>  <Source>  (462) 
PubChem BioAssays

>  <Max Phase>  (462) 
0

>  <#Ro5 Violations>  (462) 
0

>  <Molecular Weight>  (462) 
415.5

>  <Ligand Efficiency BEI>  (462) 
nan

>  <Ligand Efficiency LE>  (462) 
nan

>  <Ligand Efficiency LLE>  (462) 
nan

>  <Ligand Efficiency SEI>  (462) 
nan

>  <ALogP>  (462) 
3.41

>  <Assay Organism>  (462) 
nan

>  <Assay Tissue ChEMBL ID>  (462) 
nan

>  <Assay Tissue Name>  (462) 
nan

>  <Assay Cell Type>  (462) 
nan

>  <Assay Subcellular Fraction>  (462) 
nan

>  <Organism Tax ID>  (462) 
9606

>  <BAO Format ID>  (462) 
BAO_0000019

>  <Published Type>  (462) 
nan

>  <Published Relation>  (462) 
nan

>  <Published Value>  (462) 
nan

>  <Published Units>  (462) 
nan

>  <Canonical Smiles>  (462) 
N#Cc1ccc(cn1)c2n[nH]c3c2Cc4ccc(OCCCCN5CCOCC5)cc34

>  <Data Validity Comment>  (462) 
nan

>  <Document Journal>  (462) 
nan

>  <Document Year>  (462) 
nan

>  <SRC ID>  (462) 
7

>  <UO Units>  (462) 
UO_0000065

>  <Potential Duplicate>  (462) 
False

>  <Class>  (462) 
0

$$$$

     RDKit          2D

 35 38  0  0  0  0  0  0  0  0999 V2000
   -4.9294   -9.0000    0.0000 C   0  0  0  0  0  0  0  0  0  0  0  0
   -3.6304   -8.2500    0.0000 C   0  0  0  0  0  0  0  0  0  0  0  0
   -3.6304   -6.7500    0.0000 N   0  0  0  0  0  0  0  0  0  0  0  0
   -4.9294   -6.0000    0.0000 C   0  0  0  0  0  0  0  0  0  0  0  0
   -6.2284   -6.7500    0.0000 C   0  0  0  0  0  0  0  0  0  0  0  0
   -2.3313   -6.0000    0.0000 C   0  0  0  0  0  0  0  0  0  0  0  0
   -2.3313   -4.5000    0.0000 C   0  0  0  0  0  0  0  0  0  0  0  0
   -2.3313   -3.0000    0.0000 C   0  0  0  0  0  0  0  0  0  0  0  0
   -2.3313   -1.5000    0.0000 C   0  0  0  0  0  0  0  0  0  0  0  0
   -3.6304   -0.7500    0.0000 C   0  0  0  0  0  0  0  0  0  0  0  0
   -3.6304    0.7500    0.0000 N   0  0  0  0  0  0  0  0  0  0  0  0
   -2.3313    1.5000    0.0000 C   0  0  0  0  0  0  0  0  0  0  0  0
   -2.3313    3.0000    0.0000 N   0  0  0  0  0  0  0  0  0  0  0  0
   -1.0323    0.7500    0.0000 C   0  0  0  0  0  0  0  0  0  0  0  0
    0.3943    1.2135    0.0000 C   0  0  0  0  0  0  0  0  0  0  0  0
    1.2760    0.0000    0.0000 C   0  0  0  0  0  0  0  0  0  0  0  0
    0.3943   -1.2135    0.0000 S   0  0  0  0  0  0  0  0  0  0  0  0
   -1.0323   -0.7500    0.0000 C   0  0  0  0  0  0  0  0  0  0  0  0
    0.8578    2.6401    0.0000 C   0  0  0  0  0  0  0  0  0  0  0  0
    2.3250    2.9520    0.0000 C   0  0  0  0  0  0  0  0  0  0  0  0
    2.7886    4.3786    0.0000 C   0  0  0  0  0  0  0  0  0  0  0  0
    1.7849    5.4933    0.0000 C   0  0  0  0  0  0  0  0  0  0  0  0
    2.2484    6.9199    0.0000 N   0  0  0  0  0  0  0  0  0  0  0  0
    3.7156    7.2317    0.0000 C   0  0  0  0  0  0  0  0  0  0  0  0
    4.7193    6.1170    0.0000 O   0  0  0  0  0  0  0  0  0  0  0  0
    4.1791    8.6583    0.0000 N   0  0  0  0  0  0  0  0  0  0  0  0
    5.6464    8.9702    0.0000 C   0  0  0  0  0  0  0  0  0  0  0  0
    6.6501    7.8555    0.0000 C   0  0  0  0  0  0  0  0  0  0  0  0
    8.1173    8.1673    0.0000 C   0  0  0  0  0  0  0  0  0  0  0  0
    8.5808    9.5939    0.0000 C   0  0  0  0  0  0  0  0  0  0  0  0
    7.5771   10.7086    0.0000 C   0  0  0  0  0  0  0  0  0  0  0  0
    8.0406   12.1352    0.0000 C   0  0  0  0  0  0  0  0  0  0  0  0
    6.1099   10.3968    0.0000 C   0  0  0  0  0  0  0  0  0  0  0  0
    0.3177    5.1814    0.0000 C   0  0  0  0  0  0  0  0  0  0  0  0
   -0.1459    3.7548    0.0000 C   0  0  0  0  0  0  0  0  0  0  0  0
  1  2  1  0
  2  3  1  0
  3  4  1  0
  4  5  1  0
  3  6  1  0
  6  7  1  0
  7  8  3  0
  8  9  1  0
  9 10  2  0
 10 11  1  0
 11 12  2  0
 12 13  1  0
 12 14  1  0
 14 15  1  0
 15 16  2  0
 16 17  1  0
 17 18  1  0
 15 19  1  0
 19 20  2  0
 20 21  1  0
 21 22  2  0
 22 23  1  0
 23 24  1  0
 24 25  2  0
 24 26  1  0
 26 27  1  0
 27 28  2  0
 28 29  1  0
 29 30  2  0
 30 31  1  0
 31 32  1  0
 31 33  2  0
 22 34  1  0
 34 35  2  0
 18  9  1  0
 18 14  2  0
 35 19  1  0
 33 27  1  0
M  END
>  <Molecule>  (463) 
CHEMBL2001257

>  <Standard Type>  (463) 
Ki

>  <Standard Relation>  (463) 
>

>  <Standard Value>  (463) 
1584.89

>  <Standard Units>  (463) 
nM

>  <pChEMBL Value>  (463) 
nan

>  <Comment>  (463) 
inactive

>  <Compound Key>  (463) 
SID103904319

>  <Assay>  (463) 
CHEMBL1963742

>  <Assay Description>  (463) 
PUBCHEM_BIOASSAY: Navigating the Kinome. (Class of assay: other) Panel member name: JAK3

>  <BAO Format>  (463) 
assay format

>  <Target>  (463) 
CHEMBL2148

>  <Target Pref. Name>  (463) 
Tyrosine-protein kinase JAK3

>  <Target Organism>  (463) 
Homo sapiens

>  <Target Type>  (463) 
SINGLE PROTEIN

>  <Document>  (463) 
CHEMBL1201862

>  <Source>  (463) 
PubChem BioAssays

>  <Max Phase>  (463) 
0

>  <#Ro5 Violations>  (463) 
1

>  <Molecular Weight>  (463) 
483.64

>  <Ligand Efficiency BEI>  (463) 
nan

>  <Ligand Efficiency LE>  (463) 
nan

>  <Ligand Efficiency LLE>  (463) 
nan

>  <Ligand Efficiency SEI>  (463) 
nan

>  <ALogP>  (463) 
6.19

>  <Assay Organism>  (463) 
nan

>  <Assay Tissue ChEMBL ID>  (463) 
nan

>  <Assay Tissue Name>  (463) 
nan

>  <Assay Cell Type>  (463) 
nan

>  <Assay Subcellular Fraction>  (463) 
nan

>  <Organism Tax ID>  (463) 
9606

>  <BAO Format ID>  (463) 
BAO_0000019

>  <Published Type>  (463) 
nan

>  <Published Relation>  (463) 
nan

>  <Published Value>  (463) 
nan

>  <Published Units>  (463) 
nan

>  <Canonical Smiles>  (463) 
CCN(CC)CC#Cc1cnc(N)c2c(csc12)c3ccc(NC(=O)Nc4cccc(C)c4)cc3

>  <Data Validity Comment>  (463) 
nan

>  <Document Journal>  (463) 
nan

>  <Document Year>  (463) 
nan

>  <SRC ID>  (463) 
7

>  <UO Units>  (463) 
UO_0000065

>  <Potential Duplicate>  (463) 
False

>  <Class>  (463) 
0

$$$$

     RDKit          2D

 23 26  0  0  0  0  0  0  0  0999 V2000
    3.6731   -6.4508    0.0000 C   0  0  0  0  0  0  0  0  0  0  0  0
    4.4231   -5.1517    0.0000 C   0  0  0  0  0  0  0  0  0  0  0  0
    5.1731   -3.8527    0.0000 C   0  0  0  0  0  0  0  0  0  0  0  0
    5.7221   -5.9017    0.0000 C   0  0  0  0  0  0  0  0  0  0  0  0
    3.1240   -4.4017    0.0000 C   0  0  0  0  0  0  0  0  0  0  0  0
    2.9672   -2.9099    0.0000 N   0  0  0  0  0  0  0  0  0  0  0  0
    1.5000   -2.5981    0.0000 C   0  0  0  0  0  0  0  0  0  0  0  0
    0.7500   -1.2990    0.0000 C   0  0  0  0  0  0  0  0  0  0  0  0
    1.5000    0.0000    0.0000 C   0  0  0  0  0  0  0  0  0  0  0  0
    0.7500    1.2990    0.0000 C   0  0  0  0  0  0  0  0  0  0  0  0
   -0.7500    1.2990    0.0000 C   0  0  0  0  0  0  0  0  0  0  0  0
   -1.5000    2.5981    0.0000 F   0  0  0  0  0  0  0  0  0  0  0  0
   -1.5000    0.0000    0.0000 C   0  0  0  0  0  0  0  0  0  0  0  0
   -0.7500   -1.2990    0.0000 C   0  0  0  0  0  0  0  0  0  0  0  0
   -1.5000   -2.5981    0.0000 C   0  0  0  0  0  0  0  0  0  0  0  0
   -3.0000   -2.5981    0.0000 C   0  0  0  0  0  0  0  0  0  0  0  0
   -3.7500   -1.2990    0.0000 O   0  0  0  0  0  0  0  0  0  0  0  0
   -3.7500   -3.8971    0.0000 N   0  0  0  0  0  0  0  0  0  0  0  0
   -3.0000   -5.1962    0.0000 C   0  0  0  0  0  0  0  0  0  0  0  0
   -1.5000   -5.1962    0.0000 C   0  0  0  0  0  0  0  0  0  0  0  0
   -0.7500   -3.8971    0.0000 C   0  0  0  0  0  0  0  0  0  0  0  0
    0.7500   -3.8971    0.0000 C   0  0  0  0  0  0  0  0  0  0  0  0
    1.7537   -5.0118    0.0000 N   0  0  0  0  0  0  0  0  0  0  0  0
  1  2  1  0
  2  3  1  0
  2  4  1  0
  2  5  1  0
  5  6  2  0
  6  7  1  0
  7  8  2  0
  8  9  1  0
  9 10  2  0
 10 11  1  0
 11 12  1  0
 11 13  2  0
 13 14  1  0
 14 15  2  0
 15 16  1  0
 16 17  2  0
 16 18  1  0
 18 19  1  0
 19 20  2  0
 20 21  1  0
 21 22  2  0
 22 23  1  0
 23  5  1  0
 22  7  1  0
 14  8  1  0
 21 15  1  0
M  END
>  <Molecule>  (464) 
CHEMBL21156

>  <Standard Type>  (464) 
Ki

>  <Standard Relation>  (464) 
=

>  <Standard Value>  (464) 
39.81

>  <Standard Units>  (464) 
nM

>  <pChEMBL Value>  (464) 
7.4

>  <Comment>  (464) 
active

>  <Compound Key>  (464) 
SID103905610

>  <Assay>  (464) 
CHEMBL1963742

>  <Assay Description>  (464) 
PUBCHEM_BIOASSAY: Navigating the Kinome. (Class of assay: other) Panel member name: JAK3

>  <BAO Format>  (464) 
assay format

>  <Target>  (464) 
CHEMBL2148

>  <Target Pref. Name>  (464) 
Tyrosine-protein kinase JAK3

>  <Target Organism>  (464) 
Homo sapiens

>  <Target Type>  (464) 
SINGLE PROTEIN

>  <Document>  (464) 
CHEMBL1201862

>  <Source>  (464) 
PubChem BioAssays

>  <Max Phase>  (464) 
0

>  <#Ro5 Violations>  (464) 
0

>  <Molecular Weight>  (464) 
309.34

>  <Ligand Efficiency BEI>  (464) 
nan

>  <Ligand Efficiency LE>  (464) 
nan

>  <Ligand Efficiency LLE>  (464) 
nan

>  <Ligand Efficiency SEI>  (464) 
nan

>  <ALogP>  (464) 
3.99

>  <Assay Organism>  (464) 
nan

>  <Assay Tissue ChEMBL ID>  (464) 
nan

>  <Assay Tissue Name>  (464) 
nan

>  <Assay Cell Type>  (464) 
nan

>  <Assay Subcellular Fraction>  (464) 
nan

>  <Organism Tax ID>  (464) 
9606

>  <BAO Format ID>  (464) 
BAO_0000019

>  <Published Type>  (464) 
nan

>  <Published Relation>  (464) 
nan

>  <Published Value>  (464) 
nan

>  <Published Units>  (464) 
nan

>  <Canonical Smiles>  (464) 
CC(C)(C)c1nc2c3ccc(F)cc3c4C(=O)NC=Cc4c2[nH]1

>  <Data Validity Comment>  (464) 
nan

>  <Document Journal>  (464) 
nan

>  <Document Year>  (464) 
nan

>  <SRC ID>  (464) 
7

>  <UO Units>  (464) 
UO_0000065

>  <Potential Duplicate>  (464) 
False

>  <Class>  (464) 
1

$$$$

     RDKit          2D

 26 29  0  0  0  0  0  0  0  0999 V2000
    3.0000    0.0000    0.0000 N   0  0  0  0  0  0  0  0  0  0  0  0
    1.5000    0.0000    0.0000 C   0  0  0  0  0  0  0  0  0  0  0  0
    0.7500   -1.2990    0.0000 N   0  0  0  0  0  0  0  0  0  0  0  0
   -0.7500   -1.2990    0.0000 C   0  0  0  0  0  0  0  0  0  0  0  0
   -1.5000    0.0000    0.0000 N   0  0  0  0  0  0  0  0  0  0  0  0
   -0.7500    1.2990    0.0000 C   0  0  0  0  0  0  0  0  0  0  0  0
   -1.2135    2.7256    0.0000 S   0  0  0  0  0  0  0  0  0  0  0  0
   -0.0000    3.6073    0.0000 C   0  0  0  0  0  0  0  0  0  0  0  0
    1.2135    2.7256    0.0000 C   0  0  0  0  0  0  0  0  0  0  0  0
    2.6401    3.1891    0.0000 C   0  0  0  0  0  0  0  0  0  0  0  0
    3.7548    2.1855    0.0000 C   0  0  0  0  0  0  0  0  0  0  0  0
    5.1814    2.6490    0.0000 C   0  0  0  0  0  0  0  0  0  0  0  0
    5.4933    4.1162    0.0000 C   0  0  0  0  0  0  0  0  0  0  0  0
    6.9199    4.5797    0.0000 N   0  0  0  0  0  0  0  0  0  0  0  0
    8.0346    3.5760    0.0000 C   0  0  0  0  0  0  0  0  0  0  0  0
    7.7227    2.1088    0.0000 O   0  0  0  0  0  0  0  0  0  0  0  0
    9.4612    4.0396    0.0000 N   0  0  0  0  0  0  0  0  0  0  0  0
   10.5759    3.0359    0.0000 C   0  0  0  0  0  0  0  0  0  0  0  0
   10.2640    1.5686    0.0000 C   0  0  0  0  0  0  0  0  0  0  0  0
   11.3787    0.5649    0.0000 C   0  0  0  0  0  0  0  0  0  0  0  0
   12.8053    1.0285    0.0000 C   0  0  0  0  0  0  0  0  0  0  0  0
   13.1172    2.4957    0.0000 C   0  0  0  0  0  0  0  0  0  0  0  0
   12.0025    3.4994    0.0000 C   0  0  0  0  0  0  0  0  0  0  0  0
    4.3786    5.1199    0.0000 C   0  0  0  0  0  0  0  0  0  0  0  0
    2.9520    4.6564    0.0000 C   0  0  0  0  0  0  0  0  0  0  0  0
    0.7500    1.2990    0.0000 C   0  0  0  0  0  0  0  0  0  0  0  0
  1  2  1  0
  2  3  2  0
  3  4  1  0
  4  5  2  0
  5  6  1  0
  6  7  1  0
  7  8  1  0
  8  9  2  0
  9 10  1  0
 10 11  2  0
 11 12  1  0
 12 13  2  0
 13 14  1  0
 14 15  1  0
 15 16  2  0
 15 17  1  0
 17 18  1  0
 18 19  2  0
 19 20  1  0
 20 21  2  0
 21 22  1  0
 22 23  2  0
 13 24  1  0
 24 25  2  0
  9 26  1  0
 26  2  1  0
 26  6  2  0
 25 10  1  0
 23 18  1  0
M  END
>  <Molecule>  (465) 
CHEMBL1967531

>  <Standard Type>  (465) 
Ki

>  <Standard Relation>  (465) 
>

>  <Standard Value>  (465) 
1584.89

>  <Standard Units>  (465) 
nM

>  <pChEMBL Value>  (465) 
nan

>  <Comment>  (465) 
inactive

>  <Compound Key>  (465) 
SID103904284

>  <Assay>  (465) 
CHEMBL1963742

>  <Assay Description>  (465) 
PUBCHEM_BIOASSAY: Navigating the Kinome. (Class of assay: other) Panel member name: JAK3

>  <BAO Format>  (465) 
assay format

>  <Target>  (465) 
CHEMBL2148

>  <Target Pref. Name>  (465) 
Tyrosine-protein kinase JAK3

>  <Target Organism>  (465) 
Homo sapiens

>  <Target Type>  (465) 
SINGLE PROTEIN

>  <Document>  (465) 
CHEMBL1201862

>  <Source>  (465) 
PubChem BioAssays

>  <Max Phase>  (465) 
0

>  <#Ro5 Violations>  (465) 
0

>  <Molecular Weight>  (465) 
361.43

>  <Ligand Efficiency BEI>  (465) 
nan

>  <Ligand Efficiency LE>  (465) 
nan

>  <Ligand Efficiency LLE>  (465) 
nan

>  <Ligand Efficiency SEI>  (465) 
nan

>  <ALogP>  (465) 
4.58

>  <Assay Organism>  (465) 
nan

>  <Assay Tissue ChEMBL ID>  (465) 
nan

>  <Assay Tissue Name>  (465) 
nan

>  <Assay Cell Type>  (465) 
nan

>  <Assay Subcellular Fraction>  (465) 
nan

>  <Organism Tax ID>  (465) 
9606

>  <BAO Format ID>  (465) 
BAO_0000019

>  <Published Type>  (465) 
nan

>  <Published Relation>  (465) 
nan

>  <Published Value>  (465) 
nan

>  <Published Units>  (465) 
nan

>  <Canonical Smiles>  (465) 
Nc1ncnc2scc(c3ccc(NC(=O)Nc4ccccc4)cc3)c12

>  <Data Validity Comment>  (465) 
nan

>  <Document Journal>  (465) 
nan

>  <Document Year>  (465) 
nan

>  <SRC ID>  (465) 
7

>  <UO Units>  (465) 
UO_0000065

>  <Potential Duplicate>  (465) 
False

>  <Class>  (465) 
0

$$$$

     RDKit          2D

 27 30  0  0  0  0  0  0  0  0999 V2000
    3.7500  -14.2894    0.0000 C   0  0  0  0  0  0  0  0  0  0  0  0
    3.0000  -12.9904    0.0000 C   0  0  0  0  0  0  0  0  0  0  0  0
    1.5000  -12.9904    0.0000 C   0  0  0  0  0  0  0  0  0  0  0  0
    0.7500  -11.6913    0.0000 C   0  0  0  0  0  0  0  0  0  0  0  0
    1.5000  -10.3923    0.0000 C   0  0  0  0  0  0  0  0  0  0  0  0
    3.0000  -10.3923    0.0000 C   0  0  0  0  0  0  0  0  0  0  0  0
    3.7500   -9.0933    0.0000 N   0  0  0  0  0  0  0  0  0  0  0  0
    3.0000   -7.7942    0.0000 C   0  0  0  0  0  0  0  0  0  0  0  0
    1.5000   -7.7942    0.0000 O   0  0  0  0  0  0  0  0  0  0  0  0
    3.7500   -6.4952    0.0000 N   0  0  0  0  0  0  0  0  0  0  0  0
    3.0000   -5.1962    0.0000 C   0  0  0  0  0  0  0  0  0  0  0  0
    3.7500   -3.8971    0.0000 C   0  0  0  0  0  0  0  0  0  0  0  0
    3.0000   -2.5981    0.0000 C   0  0  0  0  0  0  0  0  0  0  0  0
    1.5000   -2.5981    0.0000 C   0  0  0  0  0  0  0  0  0  0  0  0
    0.7500   -3.8971    0.0000 C   0  0  0  0  0  0  0  0  0  0  0  0
    1.5000   -5.1962    0.0000 C   0  0  0  0  0  0  0  0  0  0  0  0
    0.7500   -1.2990    0.0000 C   0  0  0  0  0  0  0  0  0  0  0  0
    1.5000    0.0000    0.0000 C   0  0  0  0  0  0  0  0  0  0  0  0
    0.7500    1.2990    0.0000 C   0  0  0  0  0  0  0  0  0  0  0  0
   -0.7500    1.2990    0.0000 C   0  0  0  0  0  0  0  0  0  0  0  0
   -1.5000    0.0000    0.0000 C   0  0  0  0  0  0  0  0  0  0  0  0
   -2.9672   -0.3119    0.0000 N   0  0  0  0  0  0  0  0  0  0  0  0
   -3.1240   -1.8037    0.0000 N   0  0  0  0  0  0  0  0  0  0  0  0
   -1.7537   -2.4138    0.0000 C   0  0  0  0  0  0  0  0  0  0  0  0
   -1.4418   -3.8810    0.0000 N   0  0  0  0  0  0  0  0  0  0  0  0
   -0.7500   -1.2990    0.0000 C   0  0  0  0  0  0  0  0  0  0  0  0
    3.7500  -11.6913    0.0000 C   0  0  0  0  0  0  0  0  0  0  0  0
  1  2  1  0
  2  3  2  0
  3  4  1  0
  4  5  2  0
  5  6  1  0
  6  7  1  0
  7  8  1  0
  8  9  2  0
  8 10  1  0
 10 11  1  0
 11 12  2  0
 12 13  1  0
 13 14  2  0
 14 15  1  0
 15 16  2  0
 14 17  1  0
 17 18  2  0
 18 19  1  0
 19 20  2  0
 20 21  1  0
 21 22  1  0
 22 23  1  0
 23 24  2  0
 24 25  1  0
 24 26  1  0
  6 27  2  0
 27  2  1  0
 16 11  1  0
 26 17  1  0
 26 21  2  0
M  END
>  <Molecule>  (466) 
CHEMBL220057

>  <Standard Type>  (466) 
Ki

>  <Standard Relation>  (466) 
>

>  <Standard Value>  (466) 
1258.93

>  <Standard Units>  (466) 
nM

>  <pChEMBL Value>  (466) 
nan

>  <Comment>  (466) 
inactive

>  <Compound Key>  (466) 
SID103904333

>  <Assay>  (466) 
CHEMBL1963742

>  <Assay Description>  (466) 
PUBCHEM_BIOASSAY: Navigating the Kinome. (Class of assay: other) Panel member name: JAK3

>  <BAO Format>  (466) 
assay format

>  <Target>  (466) 
CHEMBL2148

>  <Target Pref. Name>  (466) 
Tyrosine-protein kinase JAK3

>  <Target Organism>  (466) 
Homo sapiens

>  <Target Type>  (466) 
SINGLE PROTEIN

>  <Document>  (466) 
CHEMBL1201862

>  <Source>  (466) 
PubChem BioAssays

>  <Max Phase>  (466) 
0

>  <#Ro5 Violations>  (466) 
0

>  <Molecular Weight>  (466) 
357.42

>  <Ligand Efficiency BEI>  (466) 
nan

>  <Ligand Efficiency LE>  (466) 
nan

>  <Ligand Efficiency LLE>  (466) 
nan

>  <Ligand Efficiency SEI>  (466) 
nan

>  <ALogP>  (466) 
4.76

>  <Assay Organism>  (466) 
nan

>  <Assay Tissue ChEMBL ID>  (466) 
nan

>  <Assay Tissue Name>  (466) 
nan

>  <Assay Cell Type>  (466) 
nan

>  <Assay Subcellular Fraction>  (466) 
nan

>  <Organism Tax ID>  (466) 
9606

>  <BAO Format ID>  (466) 
BAO_0000019

>  <Published Type>  (466) 
nan

>  <Published Relation>  (466) 
nan

>  <Published Value>  (466) 
nan

>  <Published Units>  (466) 
nan

>  <Canonical Smiles>  (466) 
Cc1cccc(NC(=O)Nc2ccc(cc2)c3cccc4[nH]nc(N)c34)c1

>  <Data Validity Comment>  (466) 
nan

>  <Document Journal>  (466) 
nan

>  <Document Year>  (466) 
nan

>  <SRC ID>  (466) 
7

>  <UO Units>  (466) 
UO_0000065

>  <Potential Duplicate>  (466) 
False

>  <Class>  (466) 
0

$$$$

     RDKit          2D

 26 28  0  0  0  0  0  0  0  0999 V2000
    3.0000    0.0000    0.0000 C   0  0  0  0  0  0  0  0  0  0  0  0
    1.5000    0.0000    0.0000 C   0  0  0  0  0  0  0  0  0  0  0  0
    0.7500   -1.2990    0.0000 C   0  0  0  0  0  0  0  0  0  0  0  0
   -0.7500   -1.2990    0.0000 C   0  0  0  0  0  0  0  0  0  0  0  0
   -1.5000   -2.5981    0.0000 O   0  0  0  0  0  0  0  0  0  0  0  0
   -0.7500   -3.8971    0.0000 C   0  0  0  0  0  0  0  0  0  0  0  0
    0.7418   -4.0539    0.0000 C   0  0  0  0  0  0  0  0  0  0  0  0
    1.0537   -5.5211    0.0000 C   0  0  0  0  0  0  0  0  0  0  0  0
   -0.2454   -6.2711    0.0000 C   0  0  0  0  0  0  0  0  0  0  0  0
   -1.3601   -5.2674    0.0000 C   0  0  0  0  0  0  0  0  0  0  0  0
   -1.5000    0.0000    0.0000 C   0  0  0  0  0  0  0  0  0  0  0  0
   -3.0000    0.0000    0.0000 N   0  0  0  0  0  0  0  0  0  0  0  0
   -3.7500    1.2990    0.0000 C   0  0  0  0  0  0  0  0  0  0  0  0
   -3.0000    2.5981    0.0000 O   0  0  0  0  0  0  0  0  0  0  0  0
   -5.2500    1.2990    0.0000 N   0  0  0  0  0  0  0  0  0  0  0  0
   -6.0000    2.5981    0.0000 C   0  0  0  0  0  0  0  0  0  0  0  0
   -5.2500    3.8971    0.0000 C   0  0  0  0  0  0  0  0  0  0  0  0
   -6.0000    5.1962    0.0000 N   0  0  0  0  0  0  0  0  0  0  0  0
   -7.5000    5.1962    0.0000 C   0  0  0  0  0  0  0  0  0  0  0  0
   -8.2500    3.8971    0.0000 C   0  0  0  0  0  0  0  0  0  0  0  0
   -7.5000    2.5981    0.0000 N   0  0  0  0  0  0  0  0  0  0  0  0
   -8.2500    6.4952    0.0000 C   0  0  0  0  0  0  0  0  0  0  0  0
   -9.0000    7.7942    0.0000 N   0  0  0  0  0  0  0  0  0  0  0  0
   -0.7500    1.2990    0.0000 C   0  0  0  0  0  0  0  0  0  0  0  0
    0.7500    1.2990    0.0000 C   0  0  0  0  0  0  0  0  0  0  0  0
    1.5000    2.5981    0.0000 Cl  0  0  0  0  0  0  0  0  0  0  0  0
  1  2  1  0
  2  3  2  0
  3  4  1  0
  4  5  1  0
  5  6  1  0
  6  7  1  0
  7  8  1  0
  8  9  1  0
  9 10  1  0
  4 11  2  0
 11 12  1  0
 12 13  1  0
 13 14  2  0
 13 15  1  0
 15 16  1  0
 16 17  2  0
 17 18  1  0
 18 19  2  0
 19 20  1  0
 20 21  2  0
 19 22  1  0
 22 23  3  0
 11 24  1  0
 24 25  2  0
 25 26  1  0
 25  2  1  0
 10  6  1  0
 21 16  1  0
M  END
>  <Molecule>  (467) 
CHEMBL2001224

>  <Standard Type>  (467) 
Ki

>  <Standard Relation>  (467) 
>

>  <Standard Value>  (467) 
1584.89

>  <Standard Units>  (467) 
nM

>  <pChEMBL Value>  (467) 
nan

>  <Comment>  (467) 
inactive

>  <Compound Key>  (467) 
SID103905155

>  <Assay>  (467) 
CHEMBL1963742

>  <Assay Description>  (467) 
PUBCHEM_BIOASSAY: Navigating the Kinome. (Class of assay: other) Panel member name: JAK3

>  <BAO Format>  (467) 
assay format

>  <Target>  (467) 
CHEMBL2148

>  <Target Pref. Name>  (467) 
Tyrosine-protein kinase JAK3

>  <Target Organism>  (467) 
Homo sapiens

>  <Target Type>  (467) 
SINGLE PROTEIN

>  <Document>  (467) 
CHEMBL1201862

>  <Source>  (467) 
PubChem BioAssays

>  <Max Phase>  (467) 
0

>  <#Ro5 Violations>  (467) 
0

>  <Molecular Weight>  (467) 
371.83

>  <Ligand Efficiency BEI>  (467) 
nan

>  <Ligand Efficiency LE>  (467) 
nan

>  <Ligand Efficiency LLE>  (467) 
nan

>  <Ligand Efficiency SEI>  (467) 
nan

>  <ALogP>  (467) 
4.28

>  <Assay Organism>  (467) 
nan

>  <Assay Tissue ChEMBL ID>  (467) 
nan

>  <Assay Tissue Name>  (467) 
nan

>  <Assay Cell Type>  (467) 
nan

>  <Assay Subcellular Fraction>  (467) 
nan

>  <Organism Tax ID>  (467) 
9606

>  <BAO Format ID>  (467) 
BAO_0000019

>  <Published Type>  (467) 
nan

>  <Published Relation>  (467) 
nan

>  <Published Value>  (467) 
nan

>  <Published Units>  (467) 
nan

>  <Canonical Smiles>  (467) 
Cc1cc(OC2CCCC2)c(NC(=O)Nc3cnc(cn3)C#N)cc1Cl

>  <Data Validity Comment>  (467) 
nan

>  <Document Journal>  (467) 
nan

>  <Document Year>  (467) 
nan

>  <SRC ID>  (467) 
7

>  <UO Units>  (467) 
UO_0000065

>  <Potential Duplicate>  (467) 
False

>  <Class>  (467) 
0

$$$$

     RDKit          2D

 24 27  0  0  0  0  0  0  0  0999 V2000
   -6.2961   -1.6453    0.0000 Cl  0  0  0  0  0  0  0  0  0  0  0  0
   -5.1814   -2.6490    0.0000 C   0  0  0  0  0  0  0  0  0  0  0  0
   -3.7548   -2.1855    0.0000 C   0  0  0  0  0  0  0  0  0  0  0  0
   -2.6401   -3.1891    0.0000 C   0  0  0  0  0  0  0  0  0  0  0  0
   -2.9520   -4.6564    0.0000 C   0  0  0  0  0  0  0  0  0  0  0  0
   -4.3786   -5.1199    0.0000 C   0  0  0  0  0  0  0  0  0  0  0  0
   -4.6904   -6.5871    0.0000 N   0  0  0  0  0  0  0  0  0  0  0  0
   -6.1170   -7.0506    0.0000 C   0  0  0  0  0  0  0  0  0  0  0  0
   -6.4289   -8.5179    0.0000 C   0  0  0  0  0  0  0  0  0  0  0  0
   -7.8555   -8.9814    0.0000 C   0  0  0  0  0  0  0  0  0  0  0  0
   -8.1673  -10.4486    0.0000 C   0  0  0  0  0  0  0  0  0  0  0  0
   -7.0526  -11.4523    0.0000 C   0  0  0  0  0  0  0  0  0  0  0  0
   -5.6260  -10.9888    0.0000 C   0  0  0  0  0  0  0  0  0  0  0  0
   -5.3142   -9.5216    0.0000 C   0  0  0  0  0  0  0  0  0  0  0  0
   -5.4933   -4.1162    0.0000 N   0  0  0  0  0  0  0  0  0  0  0  0
   -1.2135   -2.7256    0.0000 C   0  0  0  0  0  0  0  0  0  0  0  0
    0.0000   -3.6073    0.0000 C   0  0  0  0  0  0  0  0  0  0  0  0
    1.2135   -2.7256    0.0000 N   0  0  0  0  0  0  0  0  0  0  0  0
    0.7500   -1.2990    0.0000 C   0  0  0  0  0  0  0  0  0  0  0  0
    1.5000    0.0000    0.0000 N   0  0  0  0  0  0  0  0  0  0  0  0
    0.7500    1.2990    0.0000 C   0  0  0  0  0  0  0  0  0  0  0  0
   -0.7500    1.2990    0.0000 C   0  0  0  0  0  0  0  0  0  0  0  0
   -1.5000    0.0000    0.0000 C   0  0  0  0  0  0  0  0  0  0  0  0
   -0.7500   -1.2990    0.0000 C   0  0  0  0  0  0  0  0  0  0  0  0
  1  2  1  0
  2  3  2  0
  3  4  1  0
  4  5  2  0
  5  6  1  0
  6  7  1  0
  7  8  1  0
  8  9  1  0
  9 10  2  0
 10 11  1  0
 11 12  2  0
 12 13  1  0
 13 14  2  0
  6 15  2  0
  4 16  1  0
 16 17  2  0
 17 18  1  0
 18 19  1  0
 19 20  2  0
 20 21  1  0
 21 22  2  0
 22 23  1  0
 23 24  2  0
 15  2  1  0
 14  9  1  0
 24 16  1  0
 24 19  1  0
M  END
>  <Molecule>  (468) 
CHEMBL1969588

>  <Standard Type>  (468) 
Ki

>  <Standard Relation>  (468) 
=

>  <Standard Value>  (468) 
7.943

>  <Standard Units>  (468) 
nM

>  <pChEMBL Value>  (468) 
8.1

>  <Comment>  (468) 
active

>  <Compound Key>  (468) 
SID103904192

>  <Assay>  (468) 
CHEMBL1963742

>  <Assay Description>  (468) 
PUBCHEM_BIOASSAY: Navigating the Kinome. (Class of assay: other) Panel member name: JAK3

>  <BAO Format>  (468) 
assay format

>  <Target>  (468) 
CHEMBL2148

>  <Target Pref. Name>  (468) 
Tyrosine-protein kinase JAK3

>  <Target Organism>  (468) 
Homo sapiens

>  <Target Type>  (468) 
SINGLE PROTEIN

>  <Document>  (468) 
CHEMBL1201862

>  <Source>  (468) 
PubChem BioAssays

>  <Max Phase>  (468) 
0

>  <#Ro5 Violations>  (468) 
0

>  <Molecular Weight>  (468) 
334.81

>  <Ligand Efficiency BEI>  (468) 
nan

>  <Ligand Efficiency LE>  (468) 
nan

>  <Ligand Efficiency LLE>  (468) 
nan

>  <Ligand Efficiency SEI>  (468) 
nan

>  <ALogP>  (468) 
4.89

>  <Assay Organism>  (468) 
nan

>  <Assay Tissue ChEMBL ID>  (468) 
nan

>  <Assay Tissue Name>  (468) 
nan

>  <Assay Cell Type>  (468) 
nan

>  <Assay Subcellular Fraction>  (468) 
nan

>  <Organism Tax ID>  (468) 
9606

>  <BAO Format ID>  (468) 
BAO_0000019

>  <Published Type>  (468) 
nan

>  <Published Relation>  (468) 
nan

>  <Published Value>  (468) 
nan

>  <Published Units>  (468) 
nan

>  <Canonical Smiles>  (468) 
Clc1cc(cc(NCc2ccccc2)n1)c3c[nH]c4ncccc34

>  <Data Validity Comment>  (468) 
nan

>  <Document Journal>  (468) 
nan

>  <Document Year>  (468) 
nan

>  <SRC ID>  (468) 
7

>  <UO Units>  (468) 
UO_0000065

>  <Potential Duplicate>  (468) 
False

>  <Class>  (468) 
1

$$$$

     RDKit          2D

 18 20  0  0  0  0  0  0  0  0999 V2000
    3.7500   -1.2990    0.0000 N   0  0  0  0  0  0  0  0  0  0  0  0
    3.0000    0.0000    0.0000 C   0  0  0  0  0  0  0  0  0  0  0  0
    3.7500    1.2990    0.0000 O   0  0  0  0  0  0  0  0  0  0  0  0
    1.5000    0.0000    0.0000 C   0  0  0  0  0  0  0  0  0  0  0  0
    0.7500   -1.2990    0.0000 C   0  0  0  0  0  0  0  0  0  0  0  0
   -0.7500   -1.2990    0.0000 C   0  0  0  0  0  0  0  0  0  0  0  0
   -1.5000    0.0000    0.0000 C   0  0  0  0  0  0  0  0  0  0  0  0
   -0.7500    1.2990    0.0000 C   0  0  0  0  0  0  0  0  0  0  0  0
   -1.2135    2.7256    0.0000 N   0  0  0  0  0  0  0  0  0  0  0  0
   -0.0000    3.6073    0.0000 C   0  0  0  0  0  0  0  0  0  0  0  0
    1.2135    2.7256    0.0000 N   0  0  0  0  0  0  0  0  0  0  0  0
    0.7500    1.2990    0.0000 C   0  0  0  0  0  0  0  0  0  0  0  0
   -0.0000    5.1073    0.0000 C   0  0  0  0  0  0  0  0  0  0  0  0
    1.2990    5.8573    0.0000 C   0  0  0  0  0  0  0  0  0  0  0  0
    1.2990    7.3573    0.0000 C   0  0  0  0  0  0  0  0  0  0  0  0
    0.0000    8.1073    0.0000 N   0  0  0  0  0  0  0  0  0  0  0  0
   -1.2990    7.3573    0.0000 C   0  0  0  0  0  0  0  0  0  0  0  0
   -1.2990    5.8573    0.0000 C   0  0  0  0  0  0  0  0  0  0  0  0
  1  2  1  0
  2  3  2  0
  2  4  1  0
  4  5  2  0
  5  6  1  0
  6  7  2  0
  7  8  1  0
  8  9  1  0
  9 10  1  0
 10 11  2  0
 11 12  1  0
 10 13  1  0
 13 14  2  0
 14 15  1  0
 15 16  2  0
 16 17  1  0
 17 18  2  0
 12  4  1  0
 12  8  2  0
 18 13  1  0
M  END
>  <Molecule>  (469) 
CHEMBL1990482

>  <Standard Type>  (469) 
Ki

>  <Standard Relation>  (469) 
>

>  <Standard Value>  (469) 
1584.89

>  <Standard Units>  (469) 
nM

>  <pChEMBL Value>  (469) 
nan

>  <Comment>  (469) 
inactive

>  <Compound Key>  (469) 
SID103904688

>  <Assay>  (469) 
CHEMBL1963742

>  <Assay Description>  (469) 
PUBCHEM_BIOASSAY: Navigating the Kinome. (Class of assay: other) Panel member name: JAK3

>  <BAO Format>  (469) 
assay format

>  <Target>  (469) 
CHEMBL2148

>  <Target Pref. Name>  (469) 
Tyrosine-protein kinase JAK3

>  <Target Organism>  (469) 
Homo sapiens

>  <Target Type>  (469) 
SINGLE PROTEIN

>  <Document>  (469) 
CHEMBL1201862

>  <Source>  (469) 
PubChem BioAssays

>  <Max Phase>  (469) 
0

>  <#Ro5 Violations>  (469) 
0

>  <Molecular Weight>  (469) 
238.25

>  <Ligand Efficiency BEI>  (469) 
nan

>  <Ligand Efficiency LE>  (469) 
nan

>  <Ligand Efficiency LLE>  (469) 
nan

>  <Ligand Efficiency SEI>  (469) 
nan

>  <ALogP>  (469) 
1.72

>  <Assay Organism>  (469) 
nan

>  <Assay Tissue ChEMBL ID>  (469) 
nan

>  <Assay Tissue Name>  (469) 
nan

>  <Assay Cell Type>  (469) 
nan

>  <Assay Subcellular Fraction>  (469) 
nan

>  <Organism Tax ID>  (469) 
9606

>  <BAO Format ID>  (469) 
BAO_0000019

>  <Published Type>  (469) 
nan

>  <Published Relation>  (469) 
nan

>  <Published Value>  (469) 
nan

>  <Published Units>  (469) 
nan

>  <Canonical Smiles>  (469) 
NC(=O)c1cccc2[nH]c(nc12)c3ccncc3

>  <Data Validity Comment>  (469) 
nan

>  <Document Journal>  (469) 
nan

>  <Document Year>  (469) 
nan

>  <SRC ID>  (469) 
7

>  <UO Units>  (469) 
UO_0000065

>  <Potential Duplicate>  (469) 
False

>  <Class>  (469) 
0

$$$$

     RDKit          2D

 28 31  0  0  0  0  0  0  0  0999 V2000
    3.7500  -14.2894    0.0000 C   0  0  0  0  0  0  0  0  0  0  0  0
    3.0000  -12.9904    0.0000 C   0  0  0  0  0  0  0  0  0  0  0  0
    1.5000  -12.9904    0.0000 C   0  0  0  0  0  0  0  0  0  0  0  0
    0.7500  -11.6913    0.0000 C   0  0  0  0  0  0  0  0  0  0  0  0
    1.5000  -10.3923    0.0000 C   0  0  0  0  0  0  0  0  0  0  0  0
    3.0000  -10.3923    0.0000 C   0  0  0  0  0  0  0  0  0  0  0  0
    3.7500   -9.0933    0.0000 N   0  0  0  0  0  0  0  0  0  0  0  0
    3.0000   -7.7942    0.0000 C   0  0  0  0  0  0  0  0  0  0  0  0
    1.5000   -7.7942    0.0000 O   0  0  0  0  0  0  0  0  0  0  0  0
    3.7500   -6.4952    0.0000 N   0  0  0  0  0  0  0  0  0  0  0  0
    3.0000   -5.1962    0.0000 C   0  0  0  0  0  0  0  0  0  0  0  0
    3.7500   -3.8971    0.0000 C   0  0  0  0  0  0  0  0  0  0  0  0
    3.0000   -2.5981    0.0000 C   0  0  0  0  0  0  0  0  0  0  0  0
    1.5000   -2.5981    0.0000 C   0  0  0  0  0  0  0  0  0  0  0  0
    0.7500   -3.8971    0.0000 C   0  0  0  0  0  0  0  0  0  0  0  0
    1.5000   -5.1962    0.0000 C   0  0  0  0  0  0  0  0  0  0  0  0
    0.7500   -6.4952    0.0000 C   0  0  0  0  0  0  0  0  0  0  0  0
    0.7500   -1.2990    0.0000 C   0  0  0  0  0  0  0  0  0  0  0  0
    1.5000    0.0000    0.0000 C   0  0  0  0  0  0  0  0  0  0  0  0
    0.7500    1.2990    0.0000 C   0  0  0  0  0  0  0  0  0  0  0  0
   -0.7500    1.2990    0.0000 C   0  0  0  0  0  0  0  0  0  0  0  0
   -1.5000    0.0000    0.0000 C   0  0  0  0  0  0  0  0  0  0  0  0
   -2.9672   -0.3119    0.0000 C   0  0  0  0  0  0  0  0  0  0  0  0
   -4.0819    0.6918    0.0000 O   0  0  0  0  0  0  0  0  0  0  0  0
   -3.1240   -1.8037    0.0000 N   0  0  0  0  0  0  0  0  0  0  0  0
   -1.7537   -2.4138    0.0000 C   0  0  0  0  0  0  0  0  0  0  0  0
   -0.7500   -1.2990    0.0000 C   0  0  0  0  0  0  0  0  0  0  0  0
    3.7500  -11.6913    0.0000 C   0  0  0  0  0  0  0  0  0  0  0  0
  1  2  1  0
  2  3  2  0
  3  4  1  0
  4  5  2  0
  5  6  1  0
  6  7  1  0
  7  8  1  0
  8  9  2  0
  8 10  1  0
 10 11  1  0
 11 12  2  0
 12 13  1  0
 13 14  2  0
 14 15  1  0
 15 16  2  0
 16 17  1  0
 14 18  1  0
 18 19  2  0
 19 20  1  0
 20 21  2  0
 21 22  1  0
 22 23  1  0
 23 24  2  0
 23 25  1  0
 25 26  1  0
 26 27  1  0
  6 28  2  0
 28  2  1  0
 16 11  1  0
 27 18  1  0
 27 22  2  0
M  END
>  <Molecule>  (470) 
CHEMBL183844

>  <Standard Type>  (470) 
Ki

>  <Standard Relation>  (470) 
>

>  <Standard Value>  (470) 
1584.89

>  <Standard Units>  (470) 
nM

>  <pChEMBL Value>  (470) 
nan

>  <Comment>  (470) 
inactive

>  <Compound Key>  (470) 
SID103904360

>  <Assay>  (470) 
CHEMBL1963742

>  <Assay Description>  (470) 
PUBCHEM_BIOASSAY: Navigating the Kinome. (Class of assay: other) Panel member name: JAK3

>  <BAO Format>  (470) 
assay format

>  <Target>  (470) 
CHEMBL2148

>  <Target Pref. Name>  (470) 
Tyrosine-protein kinase JAK3

>  <Target Organism>  (470) 
Homo sapiens

>  <Target Type>  (470) 
SINGLE PROTEIN

>  <Document>  (470) 
CHEMBL1201862

>  <Source>  (470) 
PubChem BioAssays

>  <Max Phase>  (470) 
0

>  <#Ro5 Violations>  (470) 
0

>  <Molecular Weight>  (470) 
371.44

>  <Ligand Efficiency BEI>  (470) 
nan

>  <Ligand Efficiency LE>  (470) 
nan

>  <Ligand Efficiency LLE>  (470) 
nan

>  <Ligand Efficiency SEI>  (470) 
nan

>  <ALogP>  (470) 
4.86

>  <Assay Organism>  (470) 
nan

>  <Assay Tissue ChEMBL ID>  (470) 
nan

>  <Assay Tissue Name>  (470) 
nan

>  <Assay Cell Type>  (470) 
nan

>  <Assay Subcellular Fraction>  (470) 
nan

>  <Organism Tax ID>  (470) 
9606

>  <BAO Format ID>  (470) 
BAO_0000019

>  <Published Type>  (470) 
nan

>  <Published Relation>  (470) 
nan

>  <Published Value>  (470) 
nan

>  <Published Units>  (470) 
nan

>  <Canonical Smiles>  (470) 
Cc1cccc(NC(=O)Nc2ccc(cc2C)c3cccc4C(=O)NCc34)c1

>  <Data Validity Comment>  (470) 
nan

>  <Document Journal>  (470) 
nan

>  <Document Year>  (470) 
nan

>  <SRC ID>  (470) 
7

>  <UO Units>  (470) 
UO_0000065

>  <Potential Duplicate>  (470) 
False

>  <Class>  (470) 
0

$$$$

     RDKit          2D

 29 33  0  0  0  0  0  0  0  0999 V2000
    3.9449  -11.1015    0.0000 N   0  0  0  0  0  0  0  0  0  0  0  0
    3.0632   -9.8880    0.0000 C   0  0  0  0  0  0  0  0  0  0  0  0
    2.1815   -8.6745    0.0000 C   0  0  0  0  0  0  0  0  0  0  0  0
    0.6897   -8.8313    0.0000 C   0  0  0  0  0  0  0  0  0  0  0  0
   -0.1920   -7.6177    0.0000 C   0  0  0  0  0  0  0  0  0  0  0  0
    0.4182   -6.2474    0.0000 C   0  0  0  0  0  0  0  0  0  0  0  0
    1.9099   -6.0906    0.0000 C   0  0  0  0  0  0  0  0  0  0  0  0
    2.7916   -7.3041    0.0000 N   0  0  0  0  0  0  0  0  0  0  0  0
   -0.4635   -5.0339    0.0000 C   0  0  0  0  0  0  0  0  0  0  0  0
   -1.9635   -5.0339    0.0000 N   0  0  0  0  0  0  0  0  0  0  0  0
   -2.4271   -3.6073    0.0000 N   0  0  0  0  0  0  0  0  0  0  0  0
   -1.2135   -2.7256    0.0000 C   0  0  0  0  0  0  0  0  0  0  0  0
   -0.0000   -3.6073    0.0000 C   0  0  0  0  0  0  0  0  0  0  0  0
    1.2135   -2.7256    0.0000 C   0  0  0  0  0  0  0  0  0  0  0  0
    0.7500   -1.2990    0.0000 C   0  0  0  0  0  0  0  0  0  0  0  0
    1.5000    0.0000    0.0000 C   0  0  0  0  0  0  0  0  0  0  0  0
    0.7500    1.2990    0.0000 C   0  0  0  0  0  0  0  0  0  0  0  0
   -0.7500    1.2990    0.0000 C   0  0  0  0  0  0  0  0  0  0  0  0
   -1.5000    2.5981    0.0000 O   0  0  0  0  0  0  0  0  0  0  0  0
   -0.7500    3.8971    0.0000 C   0  0  0  0  0  0  0  0  0  0  0  0
   -1.5000    5.1962    0.0000 C   0  0  0  0  0  0  0  0  0  0  0  0
   -0.7500    6.4952    0.0000 N   0  0  0  0  0  0  0  0  0  0  0  0
    0.7500    6.4952    0.0000 C   0  0  0  0  0  0  0  0  0  0  0  0
    1.5000    7.7942    0.0000 C   0  0  0  0  0  0  0  0  0  0  0  0
    0.7500    9.0933    0.0000 O   0  0  0  0  0  0  0  0  0  0  0  0
   -0.7500    9.0933    0.0000 C   0  0  0  0  0  0  0  0  0  0  0  0
   -1.5000    7.7942    0.0000 C   0  0  0  0  0  0  0  0  0  0  0  0
   -1.5000    0.0000    0.0000 C   0  0  0  0  0  0  0  0  0  0  0  0
   -0.7500   -1.2990    0.0000 C   0  0  0  0  0  0  0  0  0  0  0  0
  1  2  3  0
  2  3  1  0
  3  4  2  0
  4  5  1  0
  5  6  2  0
  6  7  1  0
  7  8  2  0
  6  9  1  0
  9 10  2  0
 10 11  1  0
 11 12  1  0
 12 13  2  0
 13 14  1  0
 14 15  1  0
 15 16  2  0
 16 17  1  0
 17 18  2  0
 18 19  1  0
 19 20  1  0
 20 21  1  0
 21 22  1  0
 22 23  1  0
 23 24  1  0
 24 25  1  0
 25 26  1  0
 26 27  1  0
 18 28  1  0
 28 29  2  0
  8  3  1  0
 13  9  1  0
 29 12  1  0
 29 15  1  0
 27 22  1  0
M  END
>  <Molecule>  (471) 
CHEMBL249282

>  <Standard Type>  (471) 
Ki

>  <Standard Relation>  (471) 
>

>  <Standard Value>  (471) 
1584.89

>  <Standard Units>  (471) 
nM

>  <pChEMBL Value>  (471) 
nan

>  <Comment>  (471) 
inactive

>  <Compound Key>  (471) 
SID103904817

>  <Assay>  (471) 
CHEMBL1963742

>  <Assay Description>  (471) 
PUBCHEM_BIOASSAY: Navigating the Kinome. (Class of assay: other) Panel member name: JAK3

>  <BAO Format>  (471) 
assay format

>  <Target>  (471) 
CHEMBL2148

>  <Target Pref. Name>  (471) 
Tyrosine-protein kinase JAK3

>  <Target Organism>  (471) 
Homo sapiens

>  <Target Type>  (471) 
SINGLE PROTEIN

>  <Document>  (471) 
CHEMBL1201862

>  <Source>  (471) 
PubChem BioAssays

>  <Max Phase>  (471) 
0

>  <#Ro5 Violations>  (471) 
0

>  <Molecular Weight>  (471) 
387.44

>  <Ligand Efficiency BEI>  (471) 
nan

>  <Ligand Efficiency LE>  (471) 
nan

>  <Ligand Efficiency LLE>  (471) 
nan

>  <Ligand Efficiency SEI>  (471) 
nan

>  <ALogP>  (471) 
2.63

>  <Assay Organism>  (471) 
nan

>  <Assay Tissue ChEMBL ID>  (471) 
nan

>  <Assay Tissue Name>  (471) 
nan

>  <Assay Cell Type>  (471) 
nan

>  <Assay Subcellular Fraction>  (471) 
nan

>  <Organism Tax ID>  (471) 
9606

>  <BAO Format ID>  (471) 
BAO_0000019

>  <Published Type>  (471) 
nan

>  <Published Relation>  (471) 
nan

>  <Published Value>  (471) 
nan

>  <Published Units>  (471) 
nan

>  <Canonical Smiles>  (471) 
N#Cc1ccc(cn1)c2n[nH]c3c2Cc4ccc(OCCN5CCOCC5)cc34

>  <Data Validity Comment>  (471) 
nan

>  <Document Journal>  (471) 
nan

>  <Document Year>  (471) 
nan

>  <SRC ID>  (471) 
7

>  <UO Units>  (471) 
UO_0000065

>  <Potential Duplicate>  (471) 
False

>  <Class>  (471) 
0

$$$$

     RDKit          2D

 28 31  0  0  0  0  0  0  0  0999 V2000
   -1.8373   -5.6601    0.0000 N   0  0  0  0  0  0  0  0  0  0  0  0
   -2.9520   -4.6564    0.0000 C   0  0  0  0  0  0  0  0  0  0  0  0
   -4.3786   -5.1199    0.0000 C   0  0  0  0  0  0  0  0  0  0  0  0
   -4.6904   -6.5871    0.0000 O   0  0  0  0  0  0  0  0  0  0  0  0
   -6.1170   -7.0506    0.0000 C   0  0  0  0  0  0  0  0  0  0  0  0
   -7.2317   -6.0469    0.0000 C   0  0  0  0  0  0  0  0  0  0  0  0
   -8.6583   -6.5105    0.0000 N   0  0  0  0  0  0  0  0  0  0  0  0
   -8.9702   -7.9777    0.0000 C   0  0  0  0  0  0  0  0  0  0  0  0
   -7.8555   -8.9814    0.0000 C   0  0  0  0  0  0  0  0  0  0  0  0
   -8.1673  -10.4486    0.0000 C   0  0  0  0  0  0  0  0  0  0  0  0
   -9.5939  -10.9121    0.0000 C   0  0  0  0  0  0  0  0  0  0  0  0
   -9.9058  -12.3794    0.0000 C   0  0  0  0  0  0  0  0  0  0  0  0
  -11.3324  -12.8429    0.0000 C   0  0  0  0  0  0  0  0  0  0  0  0
  -11.6442  -14.3101    0.0000 C   0  0  0  0  0  0  0  0  0  0  0  0
  -10.5295  -15.3138    0.0000 N   0  0  0  0  0  0  0  0  0  0  0  0
   -9.1029  -14.8503    0.0000 C   0  0  0  0  0  0  0  0  0  0  0  0
   -8.7911  -13.3831    0.0000 C   0  0  0  0  0  0  0  0  0  0  0  0
   -6.4289   -8.5179    0.0000 C   0  0  0  0  0  0  0  0  0  0  0  0
   -2.6401   -3.1891    0.0000 C   0  0  0  0  0  0  0  0  0  0  0  0
   -1.2135   -2.7256    0.0000 C   0  0  0  0  0  0  0  0  0  0  0  0
    0.0000   -3.6073    0.0000 C   0  0  0  0  0  0  0  0  0  0  0  0
    1.2135   -2.7256    0.0000 N   0  0  0  0  0  0  0  0  0  0  0  0
    0.7500   -1.2990    0.0000 C   0  0  0  0  0  0  0  0  0  0  0  0
    1.5000    0.0000    0.0000 C   0  0  0  0  0  0  0  0  0  0  0  0
    0.7500    1.2990    0.0000 C   0  0  0  0  0  0  0  0  0  0  0  0
   -0.7500    1.2990    0.0000 C   0  0  0  0  0  0  0  0  0  0  0  0
   -1.5000    0.0000    0.0000 C   0  0  0  0  0  0  0  0  0  0  0  0
   -0.7500   -1.2990    0.0000 C   0  0  0  0  0  0  0  0  0  0  0  0
  1  2  1  0
  2  3  1  0
  3  4  1  0
  4  5  1  0
  5  6  2  0
  6  7  1  0
  7  8  2  0
  8  9  1  0
  9 10  1  0
 10 11  2  3
 11 12  1  0
 12 13  2  0
 13 14  1  0
 14 15  2  0
 15 16  1  0
 16 17  2  0
  9 18  2  0
  2 19  1  0
 19 20  1  0
 20 21  2  0
 21 22  1  0
 22 23  1  0
 23 24  2  0
 24 25  1  0
 25 26  2  0
 26 27  1  0
 27 28  2  0
 18  5  1  0
 17 12  1  0
 28 20  1  0
 28 23  1  0
M  END
>  <Molecule>  (472) 
CHEMBL1974935

>  <Standard Type>  (472) 
Ki

>  <Standard Relation>  (472) 
>

>  <Standard Value>  (472) 
1584.89

>  <Standard Units>  (472) 
nM

>  <pChEMBL Value>  (472) 
nan

>  <Comment>  (472) 
inactive

>  <Compound Key>  (472) 
SID103904749

>  <Assay>  (472) 
CHEMBL1963742

>  <Assay Description>  (472) 
PUBCHEM_BIOASSAY: Navigating the Kinome. (Class of assay: other) Panel member name: JAK3

>  <BAO Format>  (472) 
assay format

>  <Target>  (472) 
CHEMBL2148

>  <Target Pref. Name>  (472) 
Tyrosine-protein kinase JAK3

>  <Target Organism>  (472) 
Homo sapiens

>  <Target Type>  (472) 
SINGLE PROTEIN

>  <Document>  (472) 
CHEMBL1201862

>  <Source>  (472) 
PubChem BioAssays

>  <Max Phase>  (472) 
0

>  <#Ro5 Violations>  (472) 
0

>  <Molecular Weight>  (472) 
370.46

>  <Ligand Efficiency BEI>  (472) 
nan

>  <Ligand Efficiency LE>  (472) 
nan

>  <Ligand Efficiency LLE>  (472) 
nan

>  <Ligand Efficiency SEI>  (472) 
nan

>  <ALogP>  (472) 
4.08

>  <Assay Organism>  (472) 
nan

>  <Assay Tissue ChEMBL ID>  (472) 
nan

>  <Assay Tissue Name>  (472) 
nan

>  <Assay Cell Type>  (472) 
nan

>  <Assay Subcellular Fraction>  (472) 
nan

>  <Organism Tax ID>  (472) 
9606

>  <BAO Format ID>  (472) 
BAO_0000019

>  <Published Type>  (472) 
nan

>  <Published Relation>  (472) 
nan

>  <Published Value>  (472) 
nan

>  <Published Units>  (472) 
nan

>  <Canonical Smiles>  (472) 
NC(COc1cncc(C=Cc2ccncc2)c1)Cc3c[nH]c4ccccc34

>  <Data Validity Comment>  (472) 
nan

>  <Document Journal>  (472) 
nan

>  <Document Year>  (472) 
nan

>  <SRC ID>  (472) 
7

>  <UO Units>  (472) 
UO_0000065

>  <Potential Duplicate>  (472) 
False

>  <Class>  (472) 
0

$$$$

     RDKit          2D

 10 11  0  0  0  0  0  0  0  0999 V2000
   -3.5736    1.2902    0.0000 N   0  0  0  0  0  0  0  0  0  0  0  0
   -2.1470    1.7537    0.0000 C   0  0  0  0  0  0  0  0  0  0  0  0
   -1.8351    3.2209    0.0000 N   0  0  0  0  0  0  0  0  0  0  0  0
   -0.4086    3.6844    0.0000 C   0  0  0  0  0  0  0  0  0  0  0  0
    0.7062    2.6807    0.0000 N   0  0  0  0  0  0  0  0  0  0  0  0
    0.3943    1.2135    0.0000 C   0  0  0  0  0  0  0  0  0  0  0  0
    1.2760    0.0000    0.0000 S   0  0  0  0  0  0  0  0  0  0  0  0
    0.3943   -1.2135    0.0000 C   0  0  0  0  0  0  0  0  0  0  0  0
   -1.0323   -0.7500    0.0000 C   0  0  0  0  0  0  0  0  0  0  0  0
   -1.0323    0.7500    0.0000 C   0  0  0  0  0  0  0  0  0  0  0  0
  1  2  1  0
  2  3  2  0
  3  4  1  0
  4  5  2  0
  5  6  1  0
  6  7  1  0
  7  8  1  0
  8  9  2  0
  9 10  1  0
 10  2  1  0
 10  6  2  0
M  END
>  <Molecule>  (473) 
CHEMBL1972934

>  <Standard Type>  (473) 
Ki

>  <Standard Relation>  (473) 
=

>  <Standard Value>  (473) 
79432.82

>  <Standard Units>  (473) 
nM

>  <pChEMBL Value>  (473) 
4.1

>  <Comment>  (473) 
active

>  <Compound Key>  (473) 
SID103905282

>  <Assay>  (473) 
CHEMBL1963742

>  <Assay Description>  (473) 
PUBCHEM_BIOASSAY: Navigating the Kinome. (Class of assay: other) Panel member name: JAK3

>  <BAO Format>  (473) 
assay format

>  <Target>  (473) 
CHEMBL2148

>  <Target Pref. Name>  (473) 
Tyrosine-protein kinase JAK3

>  <Target Organism>  (473) 
Homo sapiens

>  <Target Type>  (473) 
SINGLE PROTEIN

>  <Document>  (473) 
CHEMBL1201862

>  <Source>  (473) 
PubChem BioAssays

>  <Max Phase>  (473) 
0

>  <#Ro5 Violations>  (473) 
0

>  <Molecular Weight>  (473) 
151.19

>  <Ligand Efficiency BEI>  (473) 
nan

>  <Ligand Efficiency LE>  (473) 
nan

>  <Ligand Efficiency LLE>  (473) 
nan

>  <Ligand Efficiency SEI>  (473) 
nan

>  <ALogP>  (473) 
1.27

>  <Assay Organism>  (473) 
nan

>  <Assay Tissue ChEMBL ID>  (473) 
nan

>  <Assay Tissue Name>  (473) 
nan

>  <Assay Cell Type>  (473) 
nan

>  <Assay Subcellular Fraction>  (473) 
nan

>  <Organism Tax ID>  (473) 
9606

>  <BAO Format ID>  (473) 
BAO_0000019

>  <Published Type>  (473) 
nan

>  <Published Relation>  (473) 
nan

>  <Published Value>  (473) 
nan

>  <Published Units>  (473) 
nan

>  <Canonical Smiles>  (473) 
Nc1ncnc2sccc12

>  <Data Validity Comment>  (473) 
nan

>  <Document Journal>  (473) 
nan

>  <Document Year>  (473) 
nan

>  <SRC ID>  (473) 
7

>  <UO Units>  (473) 
UO_0000065

>  <Potential Duplicate>  (473) 
False

>  <Class>  (473) 
1

$$$$

     RDKit          2D

 22 24  0  0  0  0  0  0  0  0999 V2000
    3.7500   -1.2990    0.0000 C   0  0  0  0  0  0  0  0  0  0  0  0
    3.0000    0.0000    0.0000 O   0  0  0  0  0  0  0  0  0  0  0  0
    1.5000    0.0000    0.0000 C   0  0  0  0  0  0  0  0  0  0  0  0
    0.7500   -1.2990    0.0000 C   0  0  0  0  0  0  0  0  0  0  0  0
   -0.7500   -1.2990    0.0000 C   0  0  0  0  0  0  0  0  0  0  0  0
   -1.5000    0.0000    0.0000 C   0  0  0  0  0  0  0  0  0  0  0  0
   -0.7500    1.2990    0.0000 C   0  0  0  0  0  0  0  0  0  0  0  0
   -1.5000    2.5981    0.0000 C   0  0  0  0  0  0  0  0  0  0  0  0
   -0.7500    3.8971    0.0000 C   0  0  0  0  0  0  0  0  0  0  0  0
   -1.3601    5.2674    0.0000 S   0  0  0  0  0  0  0  0  0  0  0  0
   -0.2454    6.2711    0.0000 C   0  0  0  0  0  0  0  0  0  0  0  0
   -0.4022    7.7629    0.0000 N   0  0  0  0  0  0  0  0  0  0  0  0
    0.8113    8.6446    0.0000 C   0  0  0  0  0  0  0  0  0  0  0  0
    2.1817    8.0345    0.0000 C   0  0  0  0  0  0  0  0  0  0  0  0
    3.3952    8.9162    0.0000 C   0  0  0  0  0  0  0  0  0  0  0  0
    3.2384   10.4079    0.0000 C   0  0  0  0  0  0  0  0  0  0  0  0
    1.8681   11.0180    0.0000 C   0  0  0  0  0  0  0  0  0  0  0  0
    0.6546   10.1364    0.0000 C   0  0  0  0  0  0  0  0  0  0  0  0
    1.0537    5.5211    0.0000 N   0  0  0  0  0  0  0  0  0  0  0  0
    0.7418    4.0539    0.0000 C   0  0  0  0  0  0  0  0  0  0  0  0
    1.7455    2.9392    0.0000 O   0  0  0  0  0  0  0  0  0  0  0  0
    0.7500    1.2990    0.0000 C   0  0  0  0  0  0  0  0  0  0  0  0
  1  2  1  0
  2  3  1  0
  3  4  2  0
  4  5  1  0
  5  6  2  0
  6  7  1  0
  7  8  1  0
  8  9  2  3
  9 10  1  0
 10 11  1  0
 11 12  2  3
 12 13  1  0
 13 14  2  0
 14 15  1  0
 15 16  2  0
 16 17  1  0
 17 18  2  0
 11 19  1  0
 19 20  1  0
 20 21  2  0
  7 22  2  0
 22  3  1  0
 20  9  1  0
 18 13  1  0
M  END
>  <Molecule>  (474) 
CHEMBL1972937

>  <Standard Type>  (474) 
Ki

>  <Standard Relation>  (474) 
>

>  <Standard Value>  (474) 
1584.89

>  <Standard Units>  (474) 
nM

>  <pChEMBL Value>  (474) 
nan

>  <Comment>  (474) 
inactive

>  <Compound Key>  (474) 
SID103904703

>  <Assay>  (474) 
CHEMBL1963742

>  <Assay Description>  (474) 
PUBCHEM_BIOASSAY: Navigating the Kinome. (Class of assay: other) Panel member name: JAK3

>  <BAO Format>  (474) 
assay format

>  <Target>  (474) 
CHEMBL2148

>  <Target Pref. Name>  (474) 
Tyrosine-protein kinase JAK3

>  <Target Organism>  (474) 
Homo sapiens

>  <Target Type>  (474) 
SINGLE PROTEIN

>  <Document>  (474) 
CHEMBL1201862

>  <Source>  (474) 
PubChem BioAssays

>  <Max Phase>  (474) 
0

>  <#Ro5 Violations>  (474) 
0

>  <Molecular Weight>  (474) 
310.38

>  <Ligand Efficiency BEI>  (474) 
nan

>  <Ligand Efficiency LE>  (474) 
nan

>  <Ligand Efficiency LLE>  (474) 
nan

>  <Ligand Efficiency SEI>  (474) 
nan

>  <ALogP>  (474) 
3.59

>  <Assay Organism>  (474) 
nan

>  <Assay Tissue ChEMBL ID>  (474) 
nan

>  <Assay Tissue Name>  (474) 
nan

>  <Assay Cell Type>  (474) 
nan

>  <Assay Subcellular Fraction>  (474) 
nan

>  <Organism Tax ID>  (474) 
9606

>  <BAO Format ID>  (474) 
BAO_0000019

>  <Published Type>  (474) 
nan

>  <Published Relation>  (474) 
nan

>  <Published Value>  (474) 
nan

>  <Published Units>  (474) 
nan

>  <Canonical Smiles>  (474) 
COc1cccc(C=C2SC(=Nc3ccccc3)NC2=O)c1

>  <Data Validity Comment>  (474) 
nan

>  <Document Journal>  (474) 
nan

>  <Document Year>  (474) 
nan

>  <SRC ID>  (474) 
7

>  <UO Units>  (474) 
UO_0000065

>  <Potential Duplicate>  (474) 
False

>  <Class>  (474) 
0

$$$$

     RDKit          2D

 32 36  0  0  0  0  0  0  0  0999 V2000
    2.2500  -11.6913    0.0000 F   0  0  0  0  0  0  0  0  0  0  0  0
    3.0000  -10.3923    0.0000 C   0  0  0  0  0  0  0  0  0  0  0  0
    4.2990  -11.1423    0.0000 F   0  0  0  0  0  0  0  0  0  0  0  0
    1.7010   -9.6423    0.0000 F   0  0  0  0  0  0  0  0  0  0  0  0
    3.7500   -9.0933    0.0000 O   0  0  0  0  0  0  0  0  0  0  0  0
    3.0000   -7.7942    0.0000 C   0  0  0  0  0  0  0  0  0  0  0  0
    1.5000   -7.7942    0.0000 C   0  0  0  0  0  0  0  0  0  0  0  0
    0.7500   -6.4952    0.0000 C   0  0  0  0  0  0  0  0  0  0  0  0
    1.5000   -5.1962    0.0000 C   0  0  0  0  0  0  0  0  0  0  0  0
    0.7500   -3.8971    0.0000 C   0  0  0  0  0  0  0  0  0  0  0  0
    1.5000   -2.5981    0.0000 C   0  0  0  0  0  0  0  0  0  0  0  0
    3.0000   -2.5981    0.0000 O   0  0  0  0  0  0  0  0  0  0  0  0
    0.7500   -1.2990    0.0000 N   0  0  0  0  0  0  0  0  0  0  0  0
    1.5000    0.0000    0.0000 C   0  0  0  0  0  0  0  0  0  0  0  0
    0.7500    1.2990    0.0000 C   0  0  0  0  0  0  0  0  0  0  0  0
   -0.7500    1.2990    0.0000 C   0  0  0  0  0  0  0  0  0  0  0  0
   -1.5000    0.0000    0.0000 C   0  0  0  0  0  0  0  0  0  0  0  0
   -0.7500   -1.2990    0.0000 C   0  0  0  0  0  0  0  0  0  0  0  0
   -0.0000    2.5981    0.0000 N   0  0  0  0  0  0  0  0  0  0  0  0
   -0.7500    3.8971    0.0000 C   0  0  0  0  0  0  0  0  0  0  0  0
   -2.2500    3.8971    0.0000 C   0  0  0  0  0  0  0  0  0  0  0  0
   -3.0000    2.5981    0.0000 C   0  0  0  0  0  0  0  0  0  0  0  0
   -2.2500    1.2990    0.0000 C   0  0  0  0  0  0  0  0  0  0  0  0
   -3.2537    0.1843    0.0000 N   0  0  0  0  0  0  0  0  0  0  0  0
   -4.6240    0.7944    0.0000 C   0  0  0  0  0  0  0  0  0  0  0  0
   -5.9943    0.1843    0.0000 C   0  0  0  0  0  0  0  0  0  0  0  0
   -7.2079    1.0660    0.0000 C   0  0  0  0  0  0  0  0  0  0  0  0
   -7.0511    2.5578    0.0000 C   0  0  0  0  0  0  0  0  0  0  0  0
   -5.6807    3.1679    0.0000 C   0  0  0  0  0  0  0  0  0  0  0  0
   -4.4672    2.2862    0.0000 C   0  0  0  0  0  0  0  0  0  0  0  0
    3.0000   -5.1962    0.0000 C   0  0  0  0  0  0  0  0  0  0  0  0
    3.7500   -6.4952    0.0000 C   0  0  0  0  0  0  0  0  0  0  0  0
  1  2  1  0
  2  3  1  0
  2  4  1  0
  2  5  1  0
  5  6  1  0
  6  7  2  0
  7  8  1  0
  8  9  2  0
  9 10  1  0
 10 11  1  0
 11 12  2  0
 11 13  1  0
 13 14  1  0
 14 15  1  0
 15 16  1  0
 16 17  1  0
 17 18  1  0
 16 19  1  0
 19 20  1  0
 20 21  1  0
 21 22  1  0
 22 23  2  0
 23 24  1  0
 24 25  1  0
 25 26  2  0
 26 27  1  0
 27 28  2  0
 28 29  1  0
 29 30  2  0
  9 31  1  0
 31 32  2  0
 32  6  1  0
 18 13  1  0
 23 16  1  0
 30 22  1  0
 30 25  1  0
M  END
>  <Molecule>  (475) 
CHEMBL1996576

>  <Standard Type>  (475) 
Ki

>  <Standard Relation>  (475) 
>

>  <Standard Value>  (475) 
5011.87

>  <Standard Units>  (475) 
nM

>  <pChEMBL Value>  (475) 
nan

>  <Comment>  (475) 
inactive

>  <Compound Key>  (475) 
SID103905480

>  <Assay>  (475) 
CHEMBL1963742

>  <Assay Description>  (475) 
PUBCHEM_BIOASSAY: Navigating the Kinome. (Class of assay: other) Panel member name: JAK3

>  <BAO Format>  (475) 
assay format

>  <Target>  (475) 
CHEMBL2148

>  <Target Pref. Name>  (475) 
Tyrosine-protein kinase JAK3

>  <Target Organism>  (475) 
Homo sapiens

>  <Target Type>  (475) 
SINGLE PROTEIN

>  <Document>  (475) 
CHEMBL1201862

>  <Source>  (475) 
PubChem BioAssays

>  <Max Phase>  (475) 
0

>  <#Ro5 Violations>  (475) 
0

>  <Molecular Weight>  (475) 
443.47

>  <Ligand Efficiency BEI>  (475) 
nan

>  <Ligand Efficiency LE>  (475) 
nan

>  <Ligand Efficiency LLE>  (475) 
nan

>  <Ligand Efficiency SEI>  (475) 
nan

>  <ALogP>  (475) 
4.27

>  <Assay Organism>  (475) 
nan

>  <Assay Tissue ChEMBL ID>  (475) 
nan

>  <Assay Tissue Name>  (475) 
nan

>  <Assay Cell Type>  (475) 
nan

>  <Assay Subcellular Fraction>  (475) 
nan

>  <Organism Tax ID>  (475) 
9606

>  <BAO Format ID>  (475) 
BAO_0000019

>  <Published Type>  (475) 
nan

>  <Published Relation>  (475) 
nan

>  <Published Value>  (475) 
nan

>  <Published Units>  (475) 
nan

>  <Canonical Smiles>  (475) 
FC(F)(F)Oc1ccc(CC(=O)N2CCC3(CC2)NCCc4c3[nH]c5ccccc45)cc1

>  <Data Validity Comment>  (475) 
nan

>  <Document Journal>  (475) 
nan

>  <Document Year>  (475) 
nan

>  <SRC ID>  (475) 
7

>  <UO Units>  (475) 
UO_0000065

>  <Potential Duplicate>  (475) 
False

>  <Class>  (475) 
0

$$$$

     RDKit          2D

 29 34  0  0  0  0  0  0  0  0999 V2000
    4.4231   -2.5537    0.0000 N   0  0  0  0  0  0  0  0  0  0  0  0
    3.1240   -1.8037    0.0000 C   0  0  0  0  0  0  0  0  0  0  0  0
    1.7537   -2.4138    0.0000 N   0  0  0  0  0  0  0  0  0  0  0  0
    0.7500   -1.2990    0.0000 C   0  0  0  0  0  0  0  0  0  0  0  0
   -0.7500   -1.2990    0.0000 C   0  0  0  0  0  0  0  0  0  0  0  0
   -1.5000    0.0000    0.0000 C   0  0  0  0  0  0  0  0  0  0  0  0
   -0.7500    1.2990    0.0000 C   0  0  0  0  0  0  0  0  0  0  0  0
    0.7500    1.2990    0.0000 C   0  0  0  0  0  0  0  0  0  0  0  0
    1.5000    0.0000    0.0000 C   0  0  0  0  0  0  0  0  0  0  0  0
    2.9672   -0.3119    0.0000 N   0  0  0  0  0  0  0  0  0  0  0  0
    4.0819    0.6918    0.0000 C   0  0  0  0  0  0  0  0  0  0  0  0
    3.7701    2.1590    0.0000 C   0  0  0  0  0  0  0  0  0  0  0  0
    4.2336    3.5856    0.0000 C   0  0  0  0  0  0  0  0  0  0  0  0
    2.7664    3.2738    0.0000 C   0  0  0  0  0  0  0  0  0  0  0  0
   -1.5000    2.5981    0.0000 C   0  0  0  0  0  0  0  0  0  0  0  0
   -2.9918    2.7549    0.0000 C   0  0  0  0  0  0  0  0  0  0  0  0
   -3.3037    4.2221    0.0000 N   0  0  0  0  0  0  0  0  0  0  0  0
   -2.0046    4.9721    0.0000 C   0  0  0  0  0  0  0  0  0  0  0  0
   -1.3945    6.3424    0.0000 S   0  0  0  0  0  0  0  0  0  0  0  0
    0.0973    6.1856    0.0000 C   0  0  0  0  0  0  0  0  0  0  0  0
    0.4091    4.7184    0.0000 C   0  0  0  0  0  0  0  0  0  0  0  0
   -0.8899    3.9684    0.0000 N   0  0  0  0  0  0  0  0  0  0  0  0
   -3.9955    1.6402    0.0000 C   0  0  0  0  0  0  0  0  0  0  0  0
   -5.4627    1.9520    0.0000 C   0  0  0  0  0  0  0  0  0  0  0  0
   -6.4664    0.8373    0.0000 C   0  0  0  0  0  0  0  0  0  0  0  0
   -6.0029   -0.5893    0.0000 C   0  0  0  0  0  0  0  0  0  0  0  0
   -7.0066   -1.7040    0.0000 F   0  0  0  0  0  0  0  0  0  0  0  0
   -4.5356   -0.9012    0.0000 C   0  0  0  0  0  0  0  0  0  0  0  0
   -3.5320    0.2136    0.0000 C   0  0  0  0  0  0  0  0  0  0  0  0
  1  2  1  0
  2  3  2  0
  3  4  1  0
  4  5  2  0
  5  6  1  0
  6  7  2  0
  7  8  1  0
  8  9  2  0
  9 10  1  0
 10 11  1  0
 11 12  1  0
 12 13  1  0
 13 14  1  0
  7 15  1  0
 15 16  2  0
 16 17  1  0
 17 18  2  0
 18 19  1  0
 19 20  1  0
 20 21  2  0
 21 22  1  0
 16 23  1  0
 23 24  2  0
 24 25  1  0
 25 26  2  0
 26 27  1  0
 26 28  1  0
 28 29  2  0
 10  2  1  0
  9  4  1  0
 14 12  1  0
 22 15  1  0
 22 18  1  0
 29 23  1  0
M  END
>  <Molecule>  (476) 
CHEMBL1982874

>  <Standard Type>  (476) 
Ki

>  <Standard Relation>  (476) 
>

>  <Standard Value>  (476) 
1584.89

>  <Standard Units>  (476) 
nM

>  <pChEMBL Value>  (476) 
nan

>  <Comment>  (476) 
inactive

>  <Compound Key>  (476) 
SID103905064

>  <Assay>  (476) 
CHEMBL1963742

>  <Assay Description>  (476) 
PUBCHEM_BIOASSAY: Navigating the Kinome. (Class of assay: other) Panel member name: JAK3

>  <BAO Format>  (476) 
assay format

>  <Target>  (476) 
CHEMBL2148

>  <Target Pref. Name>  (476) 
Tyrosine-protein kinase JAK3

>  <Target Organism>  (476) 
Homo sapiens

>  <Target Type>  (476) 
SINGLE PROTEIN

>  <Document>  (476) 
CHEMBL1201862

>  <Source>  (476) 
PubChem BioAssays

>  <Max Phase>  (476) 
0

>  <#Ro5 Violations>  (476) 
1

>  <Molecular Weight>  (476) 
403.49

>  <Ligand Efficiency BEI>  (476) 
nan

>  <Ligand Efficiency LE>  (476) 
nan

>  <Ligand Efficiency LLE>  (476) 
nan

>  <Ligand Efficiency SEI>  (476) 
nan

>  <ALogP>  (476) 
5.21

>  <Assay Organism>  (476) 
nan

>  <Assay Tissue ChEMBL ID>  (476) 
nan

>  <Assay Tissue Name>  (476) 
nan

>  <Assay Cell Type>  (476) 
nan

>  <Assay Subcellular Fraction>  (476) 
nan

>  <Organism Tax ID>  (476) 
9606

>  <BAO Format ID>  (476) 
BAO_0000019

>  <Published Type>  (476) 
nan

>  <Published Relation>  (476) 
nan

>  <Published Value>  (476) 
nan

>  <Published Units>  (476) 
nan

>  <Canonical Smiles>  (476) 
Nc1nc2ccc(cc2n1CC3CC3)c4c(nc5sccn45)c6ccc(F)cc6

>  <Data Validity Comment>  (476) 
nan

>  <Document Journal>  (476) 
nan

>  <Document Year>  (476) 
nan

>  <SRC ID>  (476) 
7

>  <UO Units>  (476) 
UO_0000065

>  <Potential Duplicate>  (476) 
False

>  <Class>  (476) 
0

$$$$

     RDKit          2D

 27 30  0  0  0  0  0  0  0  0999 V2000
  -15.4772    1.5201    0.0000 C   0  0  0  0  0  0  0  0  0  0  0  0
  -14.0507    1.9836    0.0000 C   0  0  0  0  0  0  0  0  0  0  0  0
  -13.7388    3.4509    0.0000 C   0  0  0  0  0  0  0  0  0  0  0  0
  -12.3122    3.9144    0.0000 C   0  0  0  0  0  0  0  0  0  0  0  0
  -12.0003    5.3816    0.0000 C   0  0  0  0  0  0  0  0  0  0  0  0
  -11.1975    2.9107    0.0000 C   0  0  0  0  0  0  0  0  0  0  0  0
  -11.5094    1.4435    0.0000 C   0  0  0  0  0  0  0  0  0  0  0  0
  -10.3946    0.4398    0.0000 N   0  0  0  0  0  0  0  0  0  0  0  0
   -8.9681    0.9033    0.0000 C   0  0  0  0  0  0  0  0  0  0  0  0
   -8.6562    2.3705    0.0000 O   0  0  0  0  0  0  0  0  0  0  0  0
   -7.8533   -0.1004    0.0000 N   0  0  0  0  0  0  0  0  0  0  0  0
   -6.4268    0.3631    0.0000 C   0  0  0  0  0  0  0  0  0  0  0  0
   -5.3120   -0.6406    0.0000 C   0  0  0  0  0  0  0  0  0  0  0  0
   -3.8855   -0.1771    0.0000 C   0  0  0  0  0  0  0  0  0  0  0  0
   -3.5736    1.2902    0.0000 C   0  0  0  0  0  0  0  0  0  0  0  0
   -4.6883    2.2939    0.0000 C   0  0  0  0  0  0  0  0  0  0  0  0
   -6.1149    1.8303    0.0000 C   0  0  0  0  0  0  0  0  0  0  0  0
   -2.1470    1.7537    0.0000 C   0  0  0  0  0  0  0  0  0  0  0  0
   -1.8351    3.2209    0.0000 C   0  0  0  0  0  0  0  0  0  0  0  0
   -0.4086    3.6844    0.0000 C   0  0  0  0  0  0  0  0  0  0  0  0
    0.7062    2.6807    0.0000 C   0  0  0  0  0  0  0  0  0  0  0  0
    0.3943    1.2135    0.0000 C   0  0  0  0  0  0  0  0  0  0  0  0
    1.2760    0.0000    0.0000 S   0  0  0  0  0  0  0  0  0  0  0  0
    0.3943   -1.2135    0.0000 N   0  0  0  0  0  0  0  0  0  0  0  0
   -1.0323   -0.7500    0.0000 C   0  0  0  0  0  0  0  0  0  0  0  0
   -1.0323    0.7500    0.0000 C   0  0  0  0  0  0  0  0  0  0  0  0
  -12.9359    0.9799    0.0000 C   0  0  0  0  0  0  0  0  0  0  0  0
  1  2  1  0
  2  3  2  0
  3  4  1  0
  4  5  1  0
  4  6  2  0
  6  7  1  0
  7  8  1  0
  8  9  1  0
  9 10  2  0
  9 11  1  0
 11 12  1  0
 12 13  2  0
 13 14  1  0
 14 15  2  0
 15 16  1  0
 16 17  2  0
 15 18  1  0
 18 19  2  0
 19 20  1  0
 20 21  2  0
 21 22  1  0
 22 23  1  0
 23 24  1  0
 24 25  2  0
 25 26  1  0
  7 27  2  0
 27  2  1  0
 17 12  1  0
 26 18  1  0
 26 22  2  0
M  END
>  <Molecule>  (477) 
CHEMBL1992242

>  <Standard Type>  (477) 
Ki

>  <Standard Relation>  (477) 
>

>  <Standard Value>  (477) 
1584.89

>  <Standard Units>  (477) 
nM

>  <pChEMBL Value>  (477) 
nan

>  <Comment>  (477) 
inactive

>  <Compound Key>  (477) 
SID103904384

>  <Assay>  (477) 
CHEMBL1963742

>  <Assay Description>  (477) 
PUBCHEM_BIOASSAY: Navigating the Kinome. (Class of assay: other) Panel member name: JAK3

>  <BAO Format>  (477) 
assay format

>  <Target>  (477) 
CHEMBL2148

>  <Target Pref. Name>  (477) 
Tyrosine-protein kinase JAK3

>  <Target Organism>  (477) 
Homo sapiens

>  <Target Type>  (477) 
SINGLE PROTEIN

>  <Document>  (477) 
CHEMBL1201862

>  <Source>  (477) 
PubChem BioAssays

>  <Max Phase>  (477) 
0

>  <#Ro5 Violations>  (477) 
1

>  <Molecular Weight>  (477) 
373.48

>  <Ligand Efficiency BEI>  (477) 
nan

>  <Ligand Efficiency LE>  (477) 
nan

>  <Ligand Efficiency LLE>  (477) 
nan

>  <Ligand Efficiency SEI>  (477) 
nan

>  <ALogP>  (477) 
6.22

>  <Assay Organism>  (477) 
nan

>  <Assay Tissue ChEMBL ID>  (477) 
nan

>  <Assay Tissue Name>  (477) 
nan

>  <Assay Cell Type>  (477) 
nan

>  <Assay Subcellular Fraction>  (477) 
nan

>  <Organism Tax ID>  (477) 
9606

>  <BAO Format ID>  (477) 
BAO_0000019

>  <Published Type>  (477) 
nan

>  <Published Relation>  (477) 
nan

>  <Published Value>  (477) 
nan

>  <Published Units>  (477) 
nan

>  <Canonical Smiles>  (477) 
Cc1cc(C)cc(NC(=O)Nc2ccc(cc2)c3cccc4sncc34)c1

>  <Data Validity Comment>  (477) 
nan

>  <Document Journal>  (477) 
nan

>  <Document Year>  (477) 
nan

>  <SRC ID>  (477) 
7

>  <UO Units>  (477) 
UO_0000065

>  <Potential Duplicate>  (477) 
False

>  <Class>  (477) 
0

$$$$

     RDKit          2D

 29 32  0  0  0  0  0  0  0  0999 V2000
   -2.6401   -3.1891    0.0000 N   0  0  0  0  0  0  0  0  0  0  0  0
   -1.2135   -2.7256    0.0000 C   0  0  0  0  0  0  0  0  0  0  0  0
   -0.0000   -3.6073    0.0000 N   0  0  0  0  0  0  0  0  0  0  0  0
    1.2135   -2.7256    0.0000 N   0  0  0  0  0  0  0  0  0  0  0  0
    0.7500   -1.2990    0.0000 C   0  0  0  0  0  0  0  0  0  0  0  0
    1.5000    0.0000    0.0000 C   0  0  0  0  0  0  0  0  0  0  0  0
    0.7500    1.2990    0.0000 C   0  0  0  0  0  0  0  0  0  0  0  0
   -0.7500    1.2990    0.0000 C   0  0  0  0  0  0  0  0  0  0  0  0
   -1.5000    0.0000    0.0000 C   0  0  0  0  0  0  0  0  0  0  0  0
   -3.0000    0.0000    0.0000 C   0  0  0  0  0  0  0  0  0  0  0  0
   -3.7500    1.2990    0.0000 C   0  0  0  0  0  0  0  0  0  0  0  0
   -5.2500    1.2990    0.0000 C   0  0  0  0  0  0  0  0  0  0  0  0
   -6.0000    0.0000    0.0000 C   0  0  0  0  0  0  0  0  0  0  0  0
   -7.5000    0.0000    0.0000 N   0  0  0  0  0  0  0  0  0  0  0  0
   -8.2500    1.2990    0.0000 C   0  0  0  0  0  0  0  0  0  0  0  0
   -7.5000    2.5981    0.0000 O   0  0  0  0  0  0  0  0  0  0  0  0
   -9.7500    1.2990    0.0000 N   0  0  0  0  0  0  0  0  0  0  0  0
  -10.5000    2.5981    0.0000 C   0  0  0  0  0  0  0  0  0  0  0  0
   -9.7500    3.8971    0.0000 C   0  0  0  0  0  0  0  0  0  0  0  0
  -10.5000    5.1962    0.0000 C   0  0  0  0  0  0  0  0  0  0  0  0
   -9.7500    6.4952    0.0000 C   0  0  0  0  0  0  0  0  0  0  0  0
   -8.2500    6.4952    0.0000 O   0  0  0  0  0  0  0  0  0  0  0  0
  -12.0000    5.1962    0.0000 C   0  0  0  0  0  0  0  0  0  0  0  0
  -12.7500    3.8971    0.0000 C   0  0  0  0  0  0  0  0  0  0  0  0
  -12.0000    2.5981    0.0000 C   0  0  0  0  0  0  0  0  0  0  0  0
  -12.7500    1.2990    0.0000 F   0  0  0  0  0  0  0  0  0  0  0  0
   -5.2500   -1.2990    0.0000 C   0  0  0  0  0  0  0  0  0  0  0  0
   -3.7500   -1.2990    0.0000 C   0  0  0  0  0  0  0  0  0  0  0  0
   -0.7500   -1.2990    0.0000 C   0  0  0  0  0  0  0  0  0  0  0  0
  1  2  1  0
  2  3  2  0
  3  4  1  0
  4  5  1  0
  5  6  2  0
  6  7  1  0
  7  8  2  0
  8  9  1  0
  9 10  1  0
 10 11  2  0
 11 12  1  0
 12 13  2  0
 13 14  1  0
 14 15  1  0
 15 16  2  0
 15 17  1  0
 17 18  1  0
 18 19  2  0
 19 20  1  0
 20 21  1  0
 21 22  1  0
 20 23  2  0
 23 24  1  0
 24 25  2  0
 25 26  1  0
 13 27  1  0
 27 28  2  0
  9 29  2  0
 29  2  1  0
 29  5  1  0
 28 10  1  0
 25 18  1  0
M  END
>  <Molecule>  (478) 
CHEMBL1985311

>  <Standard Type>  (478) 
Ki

>  <Standard Relation>  (478) 
>

>  <Standard Value>  (478) 
1584.89

>  <Standard Units>  (478) 
nM

>  <pChEMBL Value>  (478) 
nan

>  <Comment>  (478) 
inactive

>  <Compound Key>  (478) 
SID103904855

>  <Assay>  (478) 
CHEMBL1963742

>  <Assay Description>  (478) 
PUBCHEM_BIOASSAY: Navigating the Kinome. (Class of assay: other) Panel member name: JAK3

>  <BAO Format>  (478) 
assay format

>  <Target>  (478) 
CHEMBL2148

>  <Target Pref. Name>  (478) 
Tyrosine-protein kinase JAK3

>  <Target Organism>  (478) 
Homo sapiens

>  <Target Type>  (478) 
SINGLE PROTEIN

>  <Document>  (478) 
CHEMBL1201862

>  <Source>  (478) 
PubChem BioAssays

>  <Max Phase>  (478) 
0

>  <#Ro5 Violations>  (478) 
0

>  <Molecular Weight>  (478) 
391.41

>  <Ligand Efficiency BEI>  (478) 
nan

>  <Ligand Efficiency LE>  (478) 
nan

>  <Ligand Efficiency LLE>  (478) 
nan

>  <Ligand Efficiency SEI>  (478) 
nan

>  <ALogP>  (478) 
4.09

>  <Assay Organism>  (478) 
nan

>  <Assay Tissue ChEMBL ID>  (478) 
nan

>  <Assay Tissue Name>  (478) 
nan

>  <Assay Cell Type>  (478) 
nan

>  <Assay Subcellular Fraction>  (478) 
nan

>  <Organism Tax ID>  (478) 
9606

>  <BAO Format ID>  (478) 
BAO_0000019

>  <Published Type>  (478) 
nan

>  <Published Relation>  (478) 
nan

>  <Published Value>  (478) 
nan

>  <Published Units>  (478) 
nan

>  <Canonical Smiles>  (478) 
Nc1n[nH]c2cccc(c3ccc(NC(=O)Nc4cc(CO)ccc4F)cc3)c12

>  <Data Validity Comment>  (478) 
nan

>  <Document Journal>  (478) 
nan

>  <Document Year>  (478) 
nan

>  <SRC ID>  (478) 
7

>  <UO Units>  (478) 
UO_0000065

>  <Potential Duplicate>  (478) 
False

>  <Class>  (478) 
0

$$$$

     RDKit          2D

 21 23  0  0  0  0  0  0  0  0999 V2000
   -5.2500   -3.8971    0.0000 C   0  0  0  0  0  0  0  0  0  0  0  0
   -3.7500   -3.8971    0.0000 N   0  0  0  0  0  0  0  0  0  0  0  0
   -3.0000   -2.5981    0.0000 C   0  0  0  0  0  0  0  0  0  0  0  0
   -1.5000   -2.5981    0.0000 C   0  0  0  0  0  0  0  0  0  0  0  0
   -0.7500   -3.8971    0.0000 C   0  0  0  0  0  0  0  0  0  0  0  0
    0.7500   -3.8971    0.0000 C   0  0  0  0  0  0  0  0  0  0  0  0
    1.5000   -5.1962    0.0000 Cl  0  0  0  0  0  0  0  0  0  0  0  0
    1.5000   -2.5981    0.0000 C   0  0  0  0  0  0  0  0  0  0  0  0
    3.0000   -2.5981    0.0000 O   0  0  0  0  0  0  0  0  0  0  0  0
    0.7500   -1.2990    0.0000 C   0  0  0  0  0  0  0  0  0  0  0  0
    1.5000    0.0000    0.0000 N   0  0  0  0  0  0  0  0  0  0  0  0
    0.7500    1.2990    0.0000 C   0  0  0  0  0  0  0  0  0  0  0  0
   -0.7500    1.2990    0.0000 C   0  0  0  0  0  0  0  0  0  0  0  0
   -1.5000    0.0000    0.0000 C   0  0  0  0  0  0  0  0  0  0  0  0
   -0.7500   -1.2990    0.0000 C   0  0  0  0  0  0  0  0  0  0  0  0
   -3.0000   -5.1962    0.0000 C   0  0  0  0  0  0  0  0  0  0  0  0
   -3.7500   -6.4952    0.0000 C   0  0  0  0  0  0  0  0  0  0  0  0
   -3.0000   -7.7942    0.0000 C   0  0  0  0  0  0  0  0  0  0  0  0
   -1.5000   -7.7942    0.0000 C   0  0  0  0  0  0  0  0  0  0  0  0
   -0.7500   -6.4952    0.0000 C   0  0  0  0  0  0  0  0  0  0  0  0
   -1.5000   -5.1962    0.0000 C   0  0  0  0  0  0  0  0  0  0  0  0
  1  2  1  0
  2  3  1  0
  3  4  1  0
  4  5  2  0
  5  6  1  0
  6  7  1  0
  6  8  2  0
  8  9  1  0
  8 10  1  0
 10 11  2  0
 11 12  1  0
 12 13  2  0
 13 14  1  0
 14 15  2  0
  2 16  1  0
 16 17  1  0
 17 18  1  0
 18 19  1  0
 19 20  1  0
 20 21  1  0
 15  4  1  0
 15 10  1  0
 21 16  1  0
M  END
>  <Molecule>  (479) 
CHEMBL1982413

>  <Standard Type>  (479) 
Ki

>  <Standard Relation>  (479) 
=

>  <Standard Value>  (479) 
1258.93

>  <Standard Units>  (479) 
nM

>  <pChEMBL Value>  (479) 
5.9

>  <Comment>  (479) 
active

>  <Compound Key>  (479) 
SID103905087

>  <Assay>  (479) 
CHEMBL1963742

>  <Assay Description>  (479) 
PUBCHEM_BIOASSAY: Navigating the Kinome. (Class of assay: other) Panel member name: JAK3

>  <BAO Format>  (479) 
assay format

>  <Target>  (479) 
CHEMBL2148

>  <Target Pref. Name>  (479) 
Tyrosine-protein kinase JAK3

>  <Target Organism>  (479) 
Homo sapiens

>  <Target Type>  (479) 
SINGLE PROTEIN

>  <Document>  (479) 
CHEMBL1201862

>  <Source>  (479) 
PubChem BioAssays

>  <Max Phase>  (479) 
0

>  <#Ro5 Violations>  (479) 
0

>  <Molecular Weight>  (479) 
304.82

>  <Ligand Efficiency BEI>  (479) 
nan

>  <Ligand Efficiency LE>  (479) 
nan

>  <Ligand Efficiency LLE>  (479) 
nan

>  <Ligand Efficiency SEI>  (479) 
nan

>  <ALogP>  (479) 
4.36

>  <Assay Organism>  (479) 
nan

>  <Assay Tissue ChEMBL ID>  (479) 
nan

>  <Assay Tissue Name>  (479) 
nan

>  <Assay Cell Type>  (479) 
nan

>  <Assay Subcellular Fraction>  (479) 
nan

>  <Organism Tax ID>  (479) 
9606

>  <BAO Format ID>  (479) 
BAO_0000019

>  <Published Type>  (479) 
nan

>  <Published Relation>  (479) 
nan

>  <Published Value>  (479) 
nan

>  <Published Units>  (479) 
nan

>  <Canonical Smiles>  (479) 
CN(Cc1cc(Cl)c(O)c2ncccc12)C3CCCCC3

>  <Data Validity Comment>  (479) 
nan

>  <Document Journal>  (479) 
nan

>  <Document Year>  (479) 
nan

>  <SRC ID>  (479) 
7

>  <UO Units>  (479) 
UO_0000065

>  <Potential Duplicate>  (479) 
False

>  <Class>  (479) 
1

$$$$

     RDKit          2D

 22 25  0  0  0  0  0  0  0  0999 V2000
    8.2500   -1.2990    0.0000 C   0  0  0  0  0  0  0  0  0  0  0  0
    6.7500   -1.2990    0.0000 O   0  0  0  0  0  0  0  0  0  0  0  0
    6.0000    0.0000    0.0000 C   0  0  0  0  0  0  0  0  0  0  0  0
    4.5000    0.0000    0.0000 C   0  0  0  0  0  0  0  0  0  0  0  0
    3.0000    0.0000    0.0000 C   0  0  0  0  0  0  0  0  0  0  0  0
    1.5000    0.0000    0.0000 C   0  0  0  0  0  0  0  0  0  0  0  0
    0.7500   -1.2990    0.0000 C   0  0  0  0  0  0  0  0  0  0  0  0
   -0.7500   -1.2990    0.0000 C   0  0  0  0  0  0  0  0  0  0  0  0
   -1.5000    0.0000    0.0000 C   0  0  0  0  0  0  0  0  0  0  0  0
   -0.7500    1.2990    0.0000 C   0  0  0  0  0  0  0  0  0  0  0  0
    0.7500    1.2990    0.0000 C   0  0  0  0  0  0  0  0  0  0  0  0
    1.2135    2.7256    0.0000 C   0  0  0  0  0  0  0  0  0  0  0  0
    0.0000    3.6073    0.0000 C   0  0  0  0  0  0  0  0  0  0  0  0
   -0.4635    5.0339    0.0000 C   0  0  0  0  0  0  0  0  0  0  0  0
   -1.9635    5.0339    0.0000 N   0  0  0  0  0  0  0  0  0  0  0  0
   -2.4271    3.6073    0.0000 N   0  0  0  0  0  0  0  0  0  0  0  0
   -1.2135    2.7256    0.0000 C   0  0  0  0  0  0  0  0  0  0  0  0
    0.4182    6.2474    0.0000 C   0  0  0  0  0  0  0  0  0  0  0  0
   -0.0454    7.6740    0.0000 C   0  0  0  0  0  0  0  0  0  0  0  0
    1.1682    8.5557    0.0000 C   0  0  0  0  0  0  0  0  0  0  0  0
    2.3817    7.6740    0.0000 C   0  0  0  0  0  0  0  0  0  0  0  0
    1.9182    6.2474    0.0000 S   0  0  0  0  0  0  0  0  0  0  0  0
  1  2  1  0
  2  3  1  0
  3  4  1  0
  4  5  3  0
  5  6  1  0
  6  7  2  0
  7  8  1  0
  8  9  2  0
  9 10  1  0
 10 11  2  0
 11 12  1  0
 12 13  1  0
 13 14  1  0
 14 15  2  0
 15 16  1  0
 16 17  1  0
 14 18  1  0
 18 19  2  0
 19 20  1  0
 20 21  2  0
 21 22  1  0
 11  6  1  0
 17 10  1  0
 17 13  2  0
 22 18  1  0
M  END
>  <Molecule>  (480) 
CHEMBL1985206

>  <Standard Type>  (480) 
Ki

>  <Standard Relation>  (480) 
>

>  <Standard Value>  (480) 
5011.87

>  <Standard Units>  (480) 
nM

>  <pChEMBL Value>  (480) 
nan

>  <Comment>  (480) 
inactive

>  <Compound Key>  (480) 
SID103904814

>  <Assay>  (480) 
CHEMBL1963742

>  <Assay Description>  (480) 
PUBCHEM_BIOASSAY: Navigating the Kinome. (Class of assay: other) Panel member name: JAK3

>  <BAO Format>  (480) 
assay format

>  <Target>  (480) 
CHEMBL2148

>  <Target Pref. Name>  (480) 
Tyrosine-protein kinase JAK3

>  <Target Organism>  (480) 
Homo sapiens

>  <Target Type>  (480) 
SINGLE PROTEIN

>  <Document>  (480) 
CHEMBL1201862

>  <Source>  (480) 
PubChem BioAssays

>  <Max Phase>  (480) 
0

>  <#Ro5 Violations>  (480) 
0

>  <Molecular Weight>  (480) 
306.39

>  <Ligand Efficiency BEI>  (480) 
nan

>  <Ligand Efficiency LE>  (480) 
nan

>  <Ligand Efficiency LLE>  (480) 
nan

>  <Ligand Efficiency SEI>  (480) 
nan

>  <ALogP>  (480) 
3.71

>  <Assay Organism>  (480) 
nan

>  <Assay Tissue ChEMBL ID>  (480) 
nan

>  <Assay Tissue Name>  (480) 
nan

>  <Assay Cell Type>  (480) 
nan

>  <Assay Subcellular Fraction>  (480) 
nan

>  <Organism Tax ID>  (480) 
9606

>  <BAO Format ID>  (480) 
BAO_0000019

>  <Published Type>  (480) 
nan

>  <Published Relation>  (480) 
nan

>  <Published Value>  (480) 
nan

>  <Published Units>  (480) 
nan

>  <Canonical Smiles>  (480) 
COCC#Cc1cccc2c1Cc3c(n[nH]c23)c4cccs4

>  <Data Validity Comment>  (480) 
nan

>  <Document Journal>  (480) 
nan

>  <Document Year>  (480) 
nan

>  <SRC ID>  (480) 
7

>  <UO Units>  (480) 
UO_0000065

>  <Potential Duplicate>  (480) 
False

>  <Class>  (480) 
0

$$$$

     RDKit          2D

 28 30  0  0  0  0  0  0  0  0999 V2000
    5.0490   -0.5490    0.0000 H   0  0  0  0  0  0  0  0  0  0  0  0
    3.7500   -1.2990    0.0000 C   0  0  0  0  0  0  0  0  0  0  0  0
    2.4510   -2.0490    0.0000 H   0  0  0  0  0  0  0  0  0  0  0  0
    4.5000   -2.5981    0.0000 H   0  0  0  0  0  0  0  0  0  0  0  0
    3.0000    0.0000    0.0000 O   0  0  0  0  0  0  0  0  0  0  0  0
    1.5000    0.0000    0.0000 C   0  0  0  0  0  0  0  0  0  0  0  0
    0.7500   -1.2990    0.0000 C   0  0  0  0  0  0  0  0  0  0  0  0
   -0.7500   -1.2990    0.0000 C   0  0  0  0  0  0  0  0  0  0  0  0
   -1.5000    0.0000    0.0000 C   0  0  0  0  0  0  0  0  0  0  0  0
   -0.7500    1.2990    0.0000 C   0  0  0  0  0  0  0  0  0  0  0  0
    0.7500    1.2990    0.0000 C   0  0  0  0  0  0  0  0  0  0  0  0
   -1.5000    2.5981    0.0000 C   0  0  0  0  0  0  0  0  0  0  0  0
   -0.7500    3.8971    0.0000 C   0  0  0  0  0  0  0  0  0  0  0  0
   -3.0000    2.5981    0.0000 N   0  0  0  0  0  0  0  0  0  0  0  0
   -3.7500    3.8971    0.0000 C   0  0  0  0  0  0  0  0  0  0  0  0
   -3.0000    5.1962    0.0000 O   0  0  0  0  0  0  0  0  0  0  0  0
   -5.2500    3.8971    0.0000 C   0  0  0  0  0  0  0  0  0  0  0  0
   -6.1317    2.6836    0.0000 S   0  0  0  0  0  0  0  0  0  0  0  0
   -7.5583    3.1471    0.0000 C   0  0  0  0  0  0  0  0  0  0  0  0
   -7.5583    4.6471    0.0000 N   0  0  0  0  0  0  0  0  0  0  0  0
   -6.1317    5.1106    0.0000 C   0  0  0  0  0  0  0  0  0  0  0  0
   -5.6682    6.5372    0.0000 C   0  0  0  0  0  0  0  0  0  0  0  0
   -8.7718    2.2654    0.0000 C   0  0  0  0  0  0  0  0  0  0  0  0
  -10.1421    2.8755    0.0000 C   0  0  0  0  0  0  0  0  0  0  0  0
  -11.3556    1.9939    0.0000 C   0  0  0  0  0  0  0  0  0  0  0  0
  -11.1988    0.5021    0.0000 N   0  0  0  0  0  0  0  0  0  0  0  0
   -9.8285   -0.1080    0.0000 C   0  0  0  0  0  0  0  0  0  0  0  0
   -8.6150    0.7737    0.0000 C   0  0  0  0  0  0  0  0  0  0  0  0
  1  2  1  0
  2  3  1  0
  2  4  1  0
  2  5  1  0
  5  6  1  0
  6  7  2  0
  7  8  1  0
  8  9  2  0
  9 10  1  0
 10 11  2  0
 10 12  1  0
 12 13  1  0
 12 14  1  0
 14 15  1  0
 15 16  2  0
 15 17  1  0
 17 18  1  0
 18 19  1  0
 19 20  2  0
 20 21  1  0
 21 22  1  0
 19 23  1  0
 23 24  2  0
 24 25  1  0
 25 26  2  0
 26 27  1  0
 27 28  2  0
 11  6  1  0
 21 17  2  0
 28 23  1  0
M  ISO  3   1   2   3   2   4   2
M  END
>  <Molecule>  (481) 
CHEMBL1998110

>  <Standard Type>  (481) 
Ki

>  <Standard Relation>  (481) 
>

>  <Standard Value>  (481) 
5011.87

>  <Standard Units>  (481) 
nM

>  <pChEMBL Value>  (481) 
nan

>  <Comment>  (481) 
inactive

>  <Compound Key>  (481) 
SID103904920

>  <Assay>  (481) 
CHEMBL1963742

>  <Assay Description>  (481) 
PUBCHEM_BIOASSAY: Navigating the Kinome. (Class of assay: other) Panel member name: JAK3

>  <BAO Format>  (481) 
assay format

>  <Target>  (481) 
CHEMBL2148

>  <Target Pref. Name>  (481) 
Tyrosine-protein kinase JAK3

>  <Target Organism>  (481) 
Homo sapiens

>  <Target Type>  (481) 
SINGLE PROTEIN

>  <Document>  (481) 
CHEMBL1201862

>  <Source>  (481) 
PubChem BioAssays

>  <Max Phase>  (481) 
0

>  <#Ro5 Violations>  (481) 
0

>  <Molecular Weight>  (481) 
356.47

>  <Ligand Efficiency BEI>  (481) 
nan

>  <Ligand Efficiency LE>  (481) 
nan

>  <Ligand Efficiency LLE>  (481) 
nan

>  <Ligand Efficiency SEI>  (481) 
nan

>  <ALogP>  (481) 
4.01

>  <Assay Organism>  (481) 
nan

>  <Assay Tissue ChEMBL ID>  (481) 
nan

>  <Assay Tissue Name>  (481) 
nan

>  <Assay Cell Type>  (481) 
nan

>  <Assay Subcellular Fraction>  (481) 
nan

>  <Organism Tax ID>  (481) 
9606

>  <BAO Format ID>  (481) 
BAO_0000019

>  <Published Type>  (481) 
nan

>  <Published Relation>  (481) 
nan

>  <Published Value>  (481) 
nan

>  <Published Units>  (481) 
nan

>  <Canonical Smiles>  (481) 
[2H]C([2H])([2H])Oc1cccc(c1)C(C)NC(=O)c2sc(nc2C)c3ccncc3

>  <Data Validity Comment>  (481) 
nan

>  <Document Journal>  (481) 
nan

>  <Document Year>  (481) 
nan

>  <SRC ID>  (481) 
7

>  <UO Units>  (481) 
UO_0000065

>  <Potential Duplicate>  (481) 
False

>  <Class>  (481) 
0

$$$$

     RDKit          2D

 30 33  0  0  0  0  0  0  0  0999 V2000
  -14.0528   -6.8974    0.0000 C   0  0  0  0  0  0  0  0  0  0  0  0
  -13.7409   -5.4301    0.0000 C   0  0  0  0  0  0  0  0  0  0  0  0
  -14.8556   -4.4264    0.0000 C   0  0  0  0  0  0  0  0  0  0  0  0
  -14.5438   -2.9592    0.0000 C   0  0  0  0  0  0  0  0  0  0  0  0
  -13.1172   -2.4957    0.0000 C   0  0  0  0  0  0  0  0  0  0  0  0
  -12.0025   -3.4994    0.0000 C   0  0  0  0  0  0  0  0  0  0  0  0
  -12.3143   -4.9666    0.0000 C   0  0  0  0  0  0  0  0  0  0  0  0
  -11.1996   -5.9703    0.0000 N   0  0  0  0  0  0  0  0  0  0  0  0
   -9.7730   -5.5068    0.0000 C   0  0  0  0  0  0  0  0  0  0  0  0
   -9.4612   -4.0396    0.0000 O   0  0  0  0  0  0  0  0  0  0  0  0
   -8.6583   -6.5105    0.0000 N   0  0  0  0  0  0  0  0  0  0  0  0
   -7.2317   -6.0469    0.0000 C   0  0  0  0  0  0  0  0  0  0  0  0
   -6.1170   -7.0506    0.0000 C   0  0  0  0  0  0  0  0  0  0  0  0
   -4.6904   -6.5871    0.0000 C   0  0  0  0  0  0  0  0  0  0  0  0
   -4.3786   -5.1199    0.0000 C   0  0  0  0  0  0  0  0  0  0  0  0
   -2.9520   -4.6564    0.0000 N   0  0  0  0  0  0  0  0  0  0  0  0
   -2.6401   -3.1891    0.0000 C   0  0  0  0  0  0  0  0  0  0  0  0
   -3.7548   -2.1855    0.0000 O   0  0  0  0  0  0  0  0  0  0  0  0
   -1.2135   -2.7256    0.0000 C   0  0  0  0  0  0  0  0  0  0  0  0
    0.0000   -3.6073    0.0000 C   0  0  0  0  0  0  0  0  0  0  0  0
    1.2135   -2.7256    0.0000 S   0  0  0  0  0  0  0  0  0  0  0  0
    0.7500   -1.2990    0.0000 C   0  0  0  0  0  0  0  0  0  0  0  0
    1.5000    0.0000    0.0000 N   0  0  0  0  0  0  0  0  0  0  0  0
    0.7500    1.2990    0.0000 C   0  0  0  0  0  0  0  0  0  0  0  0
   -0.7500    1.2990    0.0000 N   0  0  0  0  0  0  0  0  0  0  0  0
   -1.5000    0.0000    0.0000 C   0  0  0  0  0  0  0  0  0  0  0  0
   -3.0000    0.0000    0.0000 N   0  0  0  0  0  0  0  0  0  0  0  0
   -0.7500   -1.2990    0.0000 C   0  0  0  0  0  0  0  0  0  0  0  0
   -5.4933   -4.1162    0.0000 C   0  0  0  0  0  0  0  0  0  0  0  0
   -6.9199   -4.5797    0.0000 C   0  0  0  0  0  0  0  0  0  0  0  0
  1  2  1  0
  2  3  2  0
  3  4  1  0
  4  5  2  0
  5  6  1  0
  6  7  2  0
  7  8  1  0
  8  9  1  0
  9 10  2  0
  9 11  1  0
 11 12  1  0
 12 13  2  0
 13 14  1  0
 14 15  2  0
 15 16  1  0
 16 17  1  0
 17 18  2  0
 17 19  1  0
 19 20  2  0
 20 21  1  0
 21 22  1  0
 22 23  2  0
 23 24  1  0
 24 25  2  0
 25 26  1  0
 26 27  1  0
 26 28  2  0
 15 29  1  0
 29 30  2  0
  7  2  1  0
 30 12  1  0
 28 19  1  0
 28 22  1  0
M  END
>  <Molecule>  (482) 
CHEMBL1980144

>  <Standard Type>  (482) 
Ki

>  <Standard Relation>  (482) 
>

>  <Standard Value>  (482) 
1584.89

>  <Standard Units>  (482) 
nM

>  <pChEMBL Value>  (482) 
nan

>  <Comment>  (482) 
inactive

>  <Compound Key>  (482) 
SID103904705

>  <Assay>  (482) 
CHEMBL1963742

>  <Assay Description>  (482) 
PUBCHEM_BIOASSAY: Navigating the Kinome. (Class of assay: other) Panel member name: JAK3

>  <BAO Format>  (482) 
assay format

>  <Target>  (482) 
CHEMBL2148

>  <Target Pref. Name>  (482) 
Tyrosine-protein kinase JAK3

>  <Target Organism>  (482) 
Homo sapiens

>  <Target Type>  (482) 
SINGLE PROTEIN

>  <Document>  (482) 
CHEMBL1201862

>  <Source>  (482) 
PubChem BioAssays

>  <Max Phase>  (482) 
0

>  <#Ro5 Violations>  (482) 
0

>  <Molecular Weight>  (482) 
418.48

>  <Ligand Efficiency BEI>  (482) 
nan

>  <Ligand Efficiency LE>  (482) 
nan

>  <Ligand Efficiency LLE>  (482) 
nan

>  <Ligand Efficiency SEI>  (482) 
nan

>  <ALogP>  (482) 
4.48

>  <Assay Organism>  (482) 
nan

>  <Assay Tissue ChEMBL ID>  (482) 
nan

>  <Assay Tissue Name>  (482) 
nan

>  <Assay Cell Type>  (482) 
nan

>  <Assay Subcellular Fraction>  (482) 
nan

>  <Organism Tax ID>  (482) 
9606

>  <BAO Format ID>  (482) 
BAO_0000019

>  <Published Type>  (482) 
nan

>  <Published Relation>  (482) 
nan

>  <Published Value>  (482) 
nan

>  <Published Units>  (482) 
nan

>  <Canonical Smiles>  (482) 
Cc1ccccc1NC(=O)Nc2ccc(NC(=O)c3csc4ncnc(N)c34)cc2

>  <Data Validity Comment>  (482) 
nan

>  <Document Journal>  (482) 
nan

>  <Document Year>  (482) 
nan

>  <SRC ID>  (482) 
7

>  <UO Units>  (482) 
UO_0000065

>  <Potential Duplicate>  (482) 
False

>  <Class>  (482) 
0

$$$$

     RDKit          2D

 23 26  0  0  0  0  0  0  0  0999 V2000
   -2.6401   -5.7872    0.0000 C   0  0  0  0  0  0  0  0  0  0  0  0
   -1.2135   -5.3237    0.0000 C   0  0  0  0  0  0  0  0  0  0  0  0
   -0.0000   -6.2054    0.0000 N   0  0  0  0  0  0  0  0  0  0  0  0
    1.2135   -5.3237    0.0000 N   0  0  0  0  0  0  0  0  0  0  0  0
    2.6401   -5.7872    0.0000 C   0  0  0  0  0  0  0  0  0  0  0  0
    2.9520   -7.2544    0.0000 C   0  0  0  0  0  0  0  0  0  0  0  0
    4.3786   -7.7180    0.0000 C   0  0  0  0  0  0  0  0  0  0  0  0
    5.4933   -6.7143    0.0000 C   0  0  0  0  0  0  0  0  0  0  0  0
    5.1814   -5.2471    0.0000 C   0  0  0  0  0  0  0  0  0  0  0  0
    3.7548   -4.7835    0.0000 C   0  0  0  0  0  0  0  0  0  0  0  0
    0.7500   -3.8971    0.0000 C   0  0  0  0  0  0  0  0  0  0  0  0
    1.5000   -2.5981    0.0000 N   0  0  0  0  0  0  0  0  0  0  0  0
    3.0000   -2.5981    0.0000 O   0  0  0  0  0  0  0  0  0  0  0  0
    0.7500   -1.2990    0.0000 C   0  0  0  0  0  0  0  0  0  0  0  0
    1.5000    0.0000    0.0000 C   0  0  0  0  0  0  0  0  0  0  0  0
    0.7500    1.2990    0.0000 C   0  0  0  0  0  0  0  0  0  0  0  0
   -0.7500    1.2990    0.0000 C   0  0  0  0  0  0  0  0  0  0  0  0
   -1.5000    2.5981    0.0000 Cl  0  0  0  0  0  0  0  0  0  0  0  0
   -1.5000    0.0000    0.0000 C   0  0  0  0  0  0  0  0  0  0  0  0
   -0.7500   -1.2990    0.0000 C   0  0  0  0  0  0  0  0  0  0  0  0
   -1.5000   -2.5981    0.0000 C   0  0  0  0  0  0  0  0  0  0  0  0
   -3.0000   -2.5981    0.0000 O   0  0  0  0  0  0  0  0  0  0  0  0
   -0.7500   -3.8971    0.0000 C   0  0  0  0  0  0  0  0  0  0  0  0
  1  2  1  0
  2  3  2  0
  3  4  1  0
  4  5  1  0
  5  6  2  0
  6  7  1  0
  7  8  2  0
  8  9  1  0
  9 10  2  0
  4 11  1  0
 11 12  1  0
 12 13  1  0
 12 14  1  0
 14 15  2  0
 15 16  1  0
 16 17  2  0
 17 18  1  0
 17 19  1  0
 19 20  2  0
 20 21  1  0
 21 22  2  0
 21 23  1  0
 23  2  1  0
 10  5  1  0
 23 11  2  0
 20 14  1  0
M  END
>  <Molecule>  (483) 
CHEMBL379835

>  <Standard Type>  (483) 
Ki

>  <Standard Relation>  (483) 
>

>  <Standard Value>  (483) 
1584.89

>  <Standard Units>  (483) 
nM

>  <pChEMBL Value>  (483) 
nan

>  <Comment>  (483) 
inactive

>  <Compound Key>  (483) 
SID103905221

>  <Assay>  (483) 
CHEMBL1963742

>  <Assay Description>  (483) 
PUBCHEM_BIOASSAY: Navigating the Kinome. (Class of assay: other) Panel member name: JAK3

>  <BAO Format>  (483) 
assay format

>  <Target>  (483) 
CHEMBL2148

>  <Target Pref. Name>  (483) 
Tyrosine-protein kinase JAK3

>  <Target Organism>  (483) 
Homo sapiens

>  <Target Type>  (483) 
SINGLE PROTEIN

>  <Document>  (483) 
CHEMBL1201862

>  <Source>  (483) 
PubChem BioAssays

>  <Max Phase>  (483) 
0

>  <#Ro5 Violations>  (483) 
0

>  <Molecular Weight>  (483) 
325.76

>  <Ligand Efficiency BEI>  (483) 
nan

>  <Ligand Efficiency LE>  (483) 
nan

>  <Ligand Efficiency LLE>  (483) 
nan

>  <Ligand Efficiency SEI>  (483) 
nan

>  <ALogP>  (483) 
3.54

>  <Assay Organism>  (483) 
nan

>  <Assay Tissue ChEMBL ID>  (483) 
nan

>  <Assay Tissue Name>  (483) 
nan

>  <Assay Cell Type>  (483) 
nan

>  <Assay Subcellular Fraction>  (483) 
nan

>  <Organism Tax ID>  (483) 
9606

>  <BAO Format ID>  (483) 
BAO_0000019

>  <Published Type>  (483) 
nan

>  <Published Relation>  (483) 
nan

>  <Published Value>  (483) 
nan

>  <Published Units>  (483) 
nan

>  <Canonical Smiles>  (483) 
Cc1nn(c2ccccc2)c3N(O)c4ccc(Cl)cc4C(=O)c13

>  <Data Validity Comment>  (483) 
nan

>  <Document Journal>  (483) 
nan

>  <Document Year>  (483) 
nan

>  <SRC ID>  (483) 
7

>  <UO Units>  (483) 
UO_0000065

>  <Potential Duplicate>  (483) 
False

>  <Class>  (483) 
0

$$$$

     RDKit          2D

 27 30  0  0  0  0  0  0  0  0999 V2000
    2.2500   -9.0933    0.0000 N   0  0  0  0  0  0  0  0  0  0  0  0
    1.5000   -7.7942    0.0000 S   0  0  0  0  0  0  0  0  0  0  0  0
    0.2010   -8.5442    0.0000 O   0  0  0  0  0  0  0  0  0  0  0  0
    2.7990   -7.0442    0.0000 O   0  0  0  0  0  0  0  0  0  0  0  0
    0.7500   -6.4952    0.0000 C   0  0  0  0  0  0  0  0  0  0  0  0
   -0.7500   -6.4952    0.0000 C   0  0  0  0  0  0  0  0  0  0  0  0
   -1.5000   -5.1962    0.0000 C   0  0  0  0  0  0  0  0  0  0  0  0
   -0.7500   -3.8971    0.0000 C   0  0  0  0  0  0  0  0  0  0  0  0
    0.7500   -3.8971    0.0000 C   0  0  0  0  0  0  0  0  0  0  0  0
    1.5000   -2.5981    0.0000 N   0  0  0  0  0  0  0  0  0  0  0  0
    0.7500   -1.2990    0.0000 C   0  0  0  0  0  0  0  0  0  0  0  0
    1.5000    0.0000    0.0000 N   0  0  0  0  0  0  0  0  0  0  0  0
    0.7500    1.2990    0.0000 C   0  0  0  0  0  0  0  0  0  0  0  0
   -0.7500    1.2990    0.0000 C   0  0  0  0  0  0  0  0  0  0  0  0
   -1.7537    2.4138    0.0000 C   0  0  0  0  0  0  0  0  0  0  0  0
   -3.1240    1.8037    0.0000 C   0  0  0  0  0  0  0  0  0  0  0  0
   -2.9672    0.3119    0.0000 N   0  0  0  0  0  0  0  0  0  0  0  0
   -4.0819   -0.6918    0.0000 C   0  0  0  0  0  0  0  0  0  0  0  0
   -5.5085   -0.2283    0.0000 C   0  0  0  0  0  0  0  0  0  0  0  0
   -5.8204    1.2389    0.0000 C   0  0  0  0  0  0  0  0  0  0  0  0
   -7.2470    1.7024    0.0000 C   0  0  0  0  0  0  0  0  0  0  0  0
   -8.3617    0.6987    0.0000 C   0  0  0  0  0  0  0  0  0  0  0  0
   -8.0498   -0.7685    0.0000 C   0  0  0  0  0  0  0  0  0  0  0  0
   -6.6232   -1.2320    0.0000 C   0  0  0  0  0  0  0  0  0  0  0  0
   -1.5000    0.0000    0.0000 C   0  0  0  0  0  0  0  0  0  0  0  0
   -0.7500   -1.2990    0.0000 N   0  0  0  0  0  0  0  0  0  0  0  0
    1.5000   -5.1962    0.0000 C   0  0  0  0  0  0  0  0  0  0  0  0
  1  2  1  0
  2  3  2  0
  2  4  2  0
  2  5  1  0
  5  6  2  0
  6  7  1  0
  7  8  2  0
  8  9  1  0
  9 10  1  0
 10 11  1  0
 11 12  2  0
 12 13  1  0
 13 14  2  0
 14 15  1  0
 15 16  2  0
 16 17  1  0
 17 18  1  0
 18 19  1  0
 19 20  2  0
 20 21  1  0
 21 22  2  0
 22 23  1  0
 23 24  2  0
 17 25  1  0
 25 26  2  0
  9 27  2  0
 27  5  1  0
 26 11  1  0
 25 14  1  0
 24 19  1  0
M  END
>  <Molecule>  (484) 
CHEMBL1993424

>  <Standard Type>  (484) 
Ki

>  <Standard Relation>  (484) 
=

>  <Standard Value>  (484) 
7.943

>  <Standard Units>  (484) 
nM

>  <pChEMBL Value>  (484) 
8.1

>  <Comment>  (484) 
active

>  <Compound Key>  (484) 
SID103905251

>  <Assay>  (484) 
CHEMBL1963742

>  <Assay Description>  (484) 
PUBCHEM_BIOASSAY: Navigating the Kinome. (Class of assay: other) Panel member name: JAK3

>  <BAO Format>  (484) 
assay format

>  <Target>  (484) 
CHEMBL2148

>  <Target Pref. Name>  (484) 
Tyrosine-protein kinase JAK3

>  <Target Organism>  (484) 
Homo sapiens

>  <Target Type>  (484) 
SINGLE PROTEIN

>  <Document>  (484) 
CHEMBL1201862

>  <Source>  (484) 
PubChem BioAssays

>  <Max Phase>  (484) 
0

>  <#Ro5 Violations>  (484) 
0

>  <Molecular Weight>  (484) 
379.45

>  <Ligand Efficiency BEI>  (484) 
nan

>  <Ligand Efficiency LE>  (484) 
nan

>  <Ligand Efficiency LLE>  (484) 
nan

>  <Ligand Efficiency SEI>  (484) 
nan

>  <ALogP>  (484) 
2.87

>  <Assay Organism>  (484) 
nan

>  <Assay Tissue ChEMBL ID>  (484) 
nan

>  <Assay Tissue Name>  (484) 
nan

>  <Assay Cell Type>  (484) 
nan

>  <Assay Subcellular Fraction>  (484) 
nan

>  <Organism Tax ID>  (484) 
9606

>  <BAO Format ID>  (484) 
BAO_0000019

>  <Published Type>  (484) 
nan

>  <Published Relation>  (484) 
nan

>  <Published Value>  (484) 
nan

>  <Published Units>  (484) 
nan

>  <Canonical Smiles>  (484) 
NS(=O)(=O)c1cccc(Nc2ncc3ccn(Cc4ccccc4)c3n2)c1

>  <Data Validity Comment>  (484) 
nan

>  <Document Journal>  (484) 
nan

>  <Document Year>  (484) 
nan

>  <SRC ID>  (484) 
7

>  <UO Units>  (484) 
UO_0000065

>  <Potential Duplicate>  (484) 
False

>  <Class>  (484) 
1

$$$$

     RDKit          2D

 17 18  0  0  0  0  0  0  0  0999 V2000
    3.7500   -1.2990    0.0000 C   0  0  0  0  0  0  0  0  0  0  0  0
    3.0000    0.0000    0.0000 O   0  0  0  0  0  0  0  0  0  0  0  0
    1.5000    0.0000    0.0000 C   0  0  0  0  0  0  0  0  0  0  0  0
    0.7500   -1.2990    0.0000 C   0  0  0  0  0  0  0  0  0  0  0  0
   -0.7500   -1.2990    0.0000 C   0  0  0  0  0  0  0  0  0  0  0  0
   -1.5000   -2.5981    0.0000 C   0  0  0  0  0  0  0  0  0  0  0  0
   -3.0000   -2.5981    0.0000 C   0  0  0  0  0  0  0  0  0  0  0  0
   -3.8817   -3.8116    0.0000 S   0  0  0  0  0  0  0  0  0  0  0  0
   -5.3083   -3.3481    0.0000 C   0  0  0  0  0  0  0  0  0  0  0  0
   -6.5218   -4.2298    0.0000 S   0  0  0  0  0  0  0  0  0  0  0  0
   -5.3083   -1.8481    0.0000 N   0  0  0  0  0  0  0  0  0  0  0  0
   -3.8817   -1.3846    0.0000 C   0  0  0  0  0  0  0  0  0  0  0  0
   -3.4182    0.0420    0.0000 O   0  0  0  0  0  0  0  0  0  0  0  0
   -1.5000    0.0000    0.0000 C   0  0  0  0  0  0  0  0  0  0  0  0
   -0.7500    1.2990    0.0000 C   0  0  0  0  0  0  0  0  0  0  0  0
    0.7500    1.2990    0.0000 C   0  0  0  0  0  0  0  0  0  0  0  0
    1.5000    2.5981    0.0000 O   0  0  0  0  0  0  0  0  0  0  0  0
  1  2  1  0
  2  3  1  0
  3  4  2  0
  4  5  1  0
  5  6  1  0
  6  7  2  3
  7  8  1  0
  8  9  1  0
  9 10  2  0
  9 11  1  0
 11 12  1  0
 12 13  2  0
  5 14  2  0
 14 15  1  0
 15 16  2  0
 16 17  1  0
 16  3  1  0
 12  7  1  0
M  END
>  <Molecule>  (485) 
CHEMBL1973098

>  <Standard Type>  (485) 
Ki

>  <Standard Relation>  (485) 
>

>  <Standard Value>  (485) 
1584.89

>  <Standard Units>  (485) 
nM

>  <pChEMBL Value>  (485) 
nan

>  <Comment>  (485) 
inactive

>  <Compound Key>  (485) 
SID103905205

>  <Assay>  (485) 
CHEMBL1963742

>  <Assay Description>  (485) 
PUBCHEM_BIOASSAY: Navigating the Kinome. (Class of assay: other) Panel member name: JAK3

>  <BAO Format>  (485) 
assay format

>  <Target>  (485) 
CHEMBL2148

>  <Target Pref. Name>  (485) 
Tyrosine-protein kinase JAK3

>  <Target Organism>  (485) 
Homo sapiens

>  <Target Type>  (485) 
SINGLE PROTEIN

>  <Document>  (485) 
CHEMBL1201862

>  <Source>  (485) 
PubChem BioAssays

>  <Max Phase>  (485) 
0

>  <#Ro5 Violations>  (485) 
0

>  <Molecular Weight>  (485) 
267.33

>  <Ligand Efficiency BEI>  (485) 
nan

>  <Ligand Efficiency LE>  (485) 
nan

>  <Ligand Efficiency LLE>  (485) 
nan

>  <Ligand Efficiency SEI>  (485) 
nan

>  <ALogP>  (485) 
1.89

>  <Assay Organism>  (485) 
nan

>  <Assay Tissue ChEMBL ID>  (485) 
nan

>  <Assay Tissue Name>  (485) 
nan

>  <Assay Cell Type>  (485) 
nan

>  <Assay Subcellular Fraction>  (485) 
nan

>  <Organism Tax ID>  (485) 
9606

>  <BAO Format ID>  (485) 
BAO_0000019

>  <Published Type>  (485) 
nan

>  <Published Relation>  (485) 
nan

>  <Published Value>  (485) 
nan

>  <Published Units>  (485) 
nan

>  <Canonical Smiles>  (485) 
COc1cc(C=C2SC(=S)NC2=O)ccc1O

>  <Data Validity Comment>  (485) 
nan

>  <Document Journal>  (485) 
nan

>  <Document Year>  (485) 
nan

>  <SRC ID>  (485) 
7

>  <UO Units>  (485) 
UO_0000065

>  <Potential Duplicate>  (485) 
False

>  <Class>  (485) 
0

$$$$

     RDKit          2D

 30 34  0  0  0  0  0  0  0  0999 V2000
    0.7500  -11.6913    0.0000 C   0  0  0  0  0  0  0  0  0  0  0  0
    1.5000  -10.3923    0.0000 C   0  0  0  0  0  0  0  0  0  0  0  0
    0.7500   -9.0933    0.0000 C   0  0  0  0  0  0  0  0  0  0  0  0
   -0.7500   -9.0933    0.0000 C   0  0  0  0  0  0  0  0  0  0  0  0
   -1.5000   -7.7942    0.0000 C   0  0  0  0  0  0  0  0  0  0  0  0
   -0.7500   -6.4952    0.0000 C   0  0  0  0  0  0  0  0  0  0  0  0
    0.7500   -6.4952    0.0000 C   0  0  0  0  0  0  0  0  0  0  0  0
    1.5000   -5.1962    0.0000 N   0  0  0  0  0  0  0  0  0  0  0  0
    0.7500   -3.8971    0.0000 C   0  0  0  0  0  0  0  0  0  0  0  0
   -0.7500   -3.8971    0.0000 O   0  0  0  0  0  0  0  0  0  0  0  0
    1.5000   -2.5981    0.0000 N   0  0  0  0  0  0  0  0  0  0  0  0
    0.7500   -1.2990    0.0000 C   0  0  0  0  0  0  0  0  0  0  0  0
    1.5000    0.0000    0.0000 C   0  0  0  0  0  0  0  0  0  0  0  0
    0.7500    1.2990    0.0000 C   0  0  0  0  0  0  0  0  0  0  0  0
   -0.7500    1.2990    0.0000 C   0  0  0  0  0  0  0  0  0  0  0  0
   -1.5000    0.0000    0.0000 C   0  0  0  0  0  0  0  0  0  0  0  0
   -3.0000    0.0000    0.0000 C   0  0  0  0  0  0  0  0  0  0  0  0
   -3.7500    1.2990    0.0000 C   0  0  0  0  0  0  0  0  0  0  0  0
   -3.0000    2.5981    0.0000 C   0  0  0  0  0  0  0  0  0  0  0  0
   -3.4635    4.0247    0.0000 S   0  0  0  0  0  0  0  0  0  0  0  0
   -2.2500    4.9063    0.0000 C   0  0  0  0  0  0  0  0  0  0  0  0
   -2.0932    6.3981    0.0000 N   0  0  0  0  0  0  0  0  0  0  0  0
   -0.7229    7.0082    0.0000 C   0  0  0  0  0  0  0  0  0  0  0  0
    0.4906    6.1265    0.0000 N   0  0  0  0  0  0  0  0  0  0  0  0
    0.3338    4.6348    0.0000 C   0  0  0  0  0  0  0  0  0  0  0  0
    1.5474    3.7531    0.0000 N   0  0  0  0  0  0  0  0  0  0  0  0
   -1.0365    4.0247    0.0000 C   0  0  0  0  0  0  0  0  0  0  0  0
   -1.5000    2.5981    0.0000 C   0  0  0  0  0  0  0  0  0  0  0  0
   -0.7500   -1.2990    0.0000 C   0  0  0  0  0  0  0  0  0  0  0  0
    1.5000   -7.7942    0.0000 C   0  0  0  0  0  0  0  0  0  0  0  0
  1  2  1  0
  2  3  1  0
  3  4  2  0
  4  5  1  0
  5  6  2  0
  6  7  1  0
  7  8  1  0
  8  9  1  0
  9 10  2  0
  9 11  1  0
 11 12  1  0
 12 13  2  0
 13 14  1  0
 14 15  2  0
 15 16  1  0
 16 17  1  0
 17 18  1  0
 18 19  1  0
 19 20  1  0
 20 21  1  0
 21 22  2  0
 22 23  1  0
 23 24  2  0
 24 25  1  0
 25 26  1  0
 25 27  2  0
 27 28  1  0
 16 29  2  0
  7 30  2  0
 30  3  1  0
 29 12  1  0
 28 15  1  0
 28 19  2  0
 27 21  1  0
M  END
>  <Molecule>  (486) 
CHEMBL1968406

>  <Standard Type>  (486) 
Ki

>  <Standard Relation>  (486) 
>

>  <Standard Value>  (486) 
1584.89

>  <Standard Units>  (486) 
nM

>  <pChEMBL Value>  (486) 
nan

>  <Comment>  (486) 
inactive

>  <Compound Key>  (486) 
SID103904361

>  <Assay>  (486) 
CHEMBL1963742

>  <Assay Description>  (486) 
PUBCHEM_BIOASSAY: Navigating the Kinome. (Class of assay: other) Panel member name: JAK3

>  <BAO Format>  (486) 
assay format

>  <Target>  (486) 
CHEMBL2148

>  <Target Pref. Name>  (486) 
Tyrosine-protein kinase JAK3

>  <Target Organism>  (486) 
Homo sapiens

>  <Target Type>  (486) 
SINGLE PROTEIN

>  <Document>  (486) 
CHEMBL1201862

>  <Source>  (486) 
PubChem BioAssays

>  <Max Phase>  (486) 
0

>  <#Ro5 Violations>  (486) 
1

>  <Molecular Weight>  (486) 
415.52

>  <Ligand Efficiency BEI>  (486) 
nan

>  <Ligand Efficiency LE>  (486) 
nan

>  <Ligand Efficiency LLE>  (486) 
nan

>  <Ligand Efficiency SEI>  (486) 
nan

>  <ALogP>  (486) 
5.25

>  <Assay Organism>  (486) 
nan

>  <Assay Tissue ChEMBL ID>  (486) 
nan

>  <Assay Tissue Name>  (486) 
nan

>  <Assay Cell Type>  (486) 
nan

>  <Assay Subcellular Fraction>  (486) 
nan

>  <Organism Tax ID>  (486) 
9606

>  <BAO Format ID>  (486) 
BAO_0000019

>  <Published Type>  (486) 
nan

>  <Published Relation>  (486) 
nan

>  <Published Value>  (486) 
nan

>  <Published Units>  (486) 
nan

>  <Canonical Smiles>  (486) 
CCc1cccc(NC(=O)Nc2ccc3c(CCc4sc5ncnc(N)c5c34)c2)c1

>  <Data Validity Comment>  (486) 
nan

>  <Document Journal>  (486) 
nan

>  <Document Year>  (486) 
nan

>  <SRC ID>  (486) 
7

>  <UO Units>  (486) 
UO_0000065

>  <Potential Duplicate>  (486) 
False

>  <Class>  (486) 
0

$$$$

     RDKit          2D

 22 23  0  0  0  0  0  0  0  0999 V2000
    5.2500   -1.2990    0.0000 C   0  0  0  0  0  0  0  0  0  0  0  0
    3.7500   -1.2990    0.0000 C   0  0  0  0  0  0  0  0  0  0  0  0
    3.0000    0.0000    0.0000 O   0  0  0  0  0  0  0  0  0  0  0  0
    1.5000    0.0000    0.0000 C   0  0  0  0  0  0  0  0  0  0  0  0
    0.7500   -1.2990    0.0000 N   0  0  0  0  0  0  0  0  0  0  0  0
   -0.7500   -1.2990    0.0000 C   0  0  0  0  0  0  0  0  0  0  0  0
   -1.5000    0.0000    0.0000 C   0  0  0  0  0  0  0  0  0  0  0  0
   -0.7500    1.2990    0.0000 C   0  0  0  0  0  0  0  0  0  0  0  0
   -1.5000    2.5981    0.0000 N   0  0  0  0  0  0  0  0  0  0  0  0
    0.7500    1.2990    0.0000 C   0  0  0  0  0  0  0  0  0  0  0  0
    1.5000    2.5981    0.0000 C   0  0  0  0  0  0  0  0  0  0  0  0
    2.2500    3.8971    0.0000 N   0  0  0  0  0  0  0  0  0  0  0  0
   -1.5000   -2.5981    0.0000 C   0  0  0  0  0  0  0  0  0  0  0  0
   -0.7500   -3.8971    0.0000 O   0  0  0  0  0  0  0  0  0  0  0  0
   -3.0000   -2.5981    0.0000 N   0  0  0  0  0  0  0  0  0  0  0  0
   -3.7500   -3.8971    0.0000 C   0  0  0  0  0  0  0  0  0  0  0  0
   -5.2500   -3.8971    0.0000 C   0  0  0  0  0  0  0  0  0  0  0  0
   -6.0000   -2.5981    0.0000 C   0  0  0  0  0  0  0  0  0  0  0  0
   -7.5000   -2.5981    0.0000 C   0  0  0  0  0  0  0  0  0  0  0  0
   -8.2500   -3.8971    0.0000 C   0  0  0  0  0  0  0  0  0  0  0  0
   -7.5000   -5.1962    0.0000 N   0  0  0  0  0  0  0  0  0  0  0  0
   -6.0000   -5.1962    0.0000 C   0  0  0  0  0  0  0  0  0  0  0  0
  1  2  1  0
  2  3  1  0
  3  4  1  0
  4  5  2  0
  5  6  1  0
  6  7  2  0
  7  8  1  0
  8  9  1  0
  8 10  2  0
 10 11  1  0
 11 12  3  0
  6 13  1  0
 13 14  2  0
 13 15  1  0
 15 16  1  0
 16 17  1  0
 17 18  2  0
 18 19  1  0
 19 20  2  0
 20 21  1  0
 21 22  2  0
 10  4  1  0
 22 17  1  0
M  END
>  <Molecule>  (487) 
CHEMBL209534

>  <Standard Type>  (487) 
Ki

>  <Standard Relation>  (487) 
>

>  <Standard Value>  (487) 
1584.89

>  <Standard Units>  (487) 
nM

>  <pChEMBL Value>  (487) 
nan

>  <Comment>  (487) 
inactive

>  <Compound Key>  (487) 
SID103904794

>  <Assay>  (487) 
CHEMBL1963742

>  <Assay Description>  (487) 
PUBCHEM_BIOASSAY: Navigating the Kinome. (Class of assay: other) Panel member name: JAK3

>  <BAO Format>  (487) 
assay format

>  <Target>  (487) 
CHEMBL2148

>  <Target Pref. Name>  (487) 
Tyrosine-protein kinase JAK3

>  <Target Organism>  (487) 
Homo sapiens

>  <Target Type>  (487) 
SINGLE PROTEIN

>  <Document>  (487) 
CHEMBL1201862

>  <Source>  (487) 
PubChem BioAssays

>  <Max Phase>  (487) 
0

>  <#Ro5 Violations>  (487) 
0

>  <Molecular Weight>  (487) 
297.32

>  <Ligand Efficiency BEI>  (487) 
nan

>  <Ligand Efficiency LE>  (487) 
nan

>  <Ligand Efficiency LLE>  (487) 
nan

>  <Ligand Efficiency SEI>  (487) 
nan

>  <ALogP>  (487) 
1.26

>  <Assay Organism>  (487) 
nan

>  <Assay Tissue ChEMBL ID>  (487) 
nan

>  <Assay Tissue Name>  (487) 
nan

>  <Assay Cell Type>  (487) 
nan

>  <Assay Subcellular Fraction>  (487) 
nan

>  <Organism Tax ID>  (487) 
9606

>  <BAO Format ID>  (487) 
BAO_0000019

>  <Published Type>  (487) 
nan

>  <Published Relation>  (487) 
nan

>  <Published Value>  (487) 
nan

>  <Published Units>  (487) 
nan

>  <Canonical Smiles>  (487) 
CCOc1nc(cc(N)c1C#N)C(=O)NCc2cccnc2

>  <Data Validity Comment>  (487) 
nan

>  <Document Journal>  (487) 
nan

>  <Document Year>  (487) 
nan

>  <SRC ID>  (487) 
7

>  <UO Units>  (487) 
UO_0000065

>  <Potential Duplicate>  (487) 
False

>  <Class>  (487) 
0

$$$$

     RDKit          2D

 29 32  0  0  0  0  0  0  0  0999 V2000
    1.0983   12.8122    0.0000 F   0  0  0  0  0  0  0  0  0  0  0  0
   -0.0164   11.8085    0.0000 C   0  0  0  0  0  0  0  0  0  0  0  0
    0.9873   10.6938    0.0000 F   0  0  0  0  0  0  0  0  0  0  0  0
   -1.0201   12.9232    0.0000 F   0  0  0  0  0  0  0  0  0  0  0  0
   -1.1311   10.8048    0.0000 C   0  0  0  0  0  0  0  0  0  0  0  0
   -0.8192    9.3376    0.0000 C   0  0  0  0  0  0  0  0  0  0  0  0
   -1.9339    8.3339    0.0000 C   0  0  0  0  0  0  0  0  0  0  0  0
   -3.3605    8.7974    0.0000 C   0  0  0  0  0  0  0  0  0  0  0  0
   -4.4752    7.7937    0.0000 C   0  0  0  0  0  0  0  0  0  0  0  0
   -4.1634    6.3265    0.0000 N   0  0  0  0  0  0  0  0  0  0  0  0
   -2.7931    5.7164    0.0000 C   0  0  0  0  0  0  0  0  0  0  0  0
   -2.9499    4.2246    0.0000 C   0  0  0  0  0  0  0  0  0  0  0  0
   -4.4171    3.9127    0.0000 N   0  0  0  0  0  0  0  0  0  0  0  0
   -5.1671    5.2118    0.0000 N   0  0  0  0  0  0  0  0  0  0  0  0
   -1.8351    3.2209    0.0000 C   0  0  0  0  0  0  0  0  0  0  0  0
   -0.4086    3.6844    0.0000 C   0  0  0  0  0  0  0  0  0  0  0  0
    0.7062    2.6807    0.0000 C   0  0  0  0  0  0  0  0  0  0  0  0
    0.3943    1.2135    0.0000 C   0  0  0  0  0  0  0  0  0  0  0  0
    1.2760    0.0000    0.0000 N   0  0  0  0  0  0  0  0  0  0  0  0
    0.3943   -1.2135    0.0000 N   0  0  0  0  0  0  0  0  0  0  0  0
   -1.0323   -0.7500    0.0000 C   0  0  0  0  0  0  0  0  0  0  0  0
   -1.0323    0.7500    0.0000 C   0  0  0  0  0  0  0  0  0  0  0  0
   -2.1470    1.7537    0.0000 C   0  0  0  0  0  0  0  0  0  0  0  0
   -3.6724   10.2646    0.0000 C   0  0  0  0  0  0  0  0  0  0  0  0
   -2.5577   11.2683    0.0000 C   0  0  0  0  0  0  0  0  0  0  0  0
   -5.0990   10.7282    0.0000 C   0  0  0  0  0  0  0  0  0  0  0  0
   -6.5256   11.1917    0.0000 F   0  0  0  0  0  0  0  0  0  0  0  0
   -4.6355   12.1548    0.0000 F   0  0  0  0  0  0  0  0  0  0  0  0
   -5.5625    9.3016    0.0000 F   0  0  0  0  0  0  0  0  0  0  0  0
  1  2  1  0
  2  3  1  0
  2  4  1  0
  2  5  1  0
  5  6  2  0
  6  7  1  0
  7  8  2  0
  8  9  1  0
  9 10  1  0
 10 11  1  0
 11 12  2  0
 12 13  1  0
 13 14  2  0
 12 15  1  0
 15 16  2  0
 16 17  1  0
 17 18  2  0
 18 19  1  0
 19 20  1  0
 20 21  2  0
 21 22  1  0
 22 23  2  0
  8 24  1  0
 24 25  2  0
 24 26  1  0
 26 27  1  0
 26 28  1  0
 26 29  1  0
 25  5  1  0
 14 10  1  0
 23 15  1  0
 22 18  1  0
M  END
>  <Molecule>  (488) 
CHEMBL1964413

>  <Standard Type>  (488) 
Ki

>  <Standard Relation>  (488) 
>

>  <Standard Value>  (488) 
1584.89

>  <Standard Units>  (488) 
nM

>  <pChEMBL Value>  (488) 
nan

>  <Comment>  (488) 
inactive

>  <Compound Key>  (488) 
SID103904546

>  <Assay>  (488) 
CHEMBL1963742

>  <Assay Description>  (488) 
PUBCHEM_BIOASSAY: Navigating the Kinome. (Class of assay: other) Panel member name: JAK3

>  <BAO Format>  (488) 
assay format

>  <Target>  (488) 
CHEMBL2148

>  <Target Pref. Name>  (488) 
Tyrosine-protein kinase JAK3

>  <Target Organism>  (488) 
Homo sapiens

>  <Target Type>  (488) 
SINGLE PROTEIN

>  <Document>  (488) 
CHEMBL1201862

>  <Source>  (488) 
PubChem BioAssays

>  <Max Phase>  (488) 
0

>  <#Ro5 Violations>  (488) 
0

>  <Molecular Weight>  (488) 
411.31

>  <Ligand Efficiency BEI>  (488) 
nan

>  <Ligand Efficiency LE>  (488) 
nan

>  <Ligand Efficiency LLE>  (488) 
nan

>  <Ligand Efficiency SEI>  (488) 
nan

>  <ALogP>  (488) 
4.91

>  <Assay Organism>  (488) 
nan

>  <Assay Tissue ChEMBL ID>  (488) 
nan

>  <Assay Tissue Name>  (488) 
nan

>  <Assay Cell Type>  (488) 
nan

>  <Assay Subcellular Fraction>  (488) 
nan

>  <Organism Tax ID>  (488) 
9606

>  <BAO Format ID>  (488) 
BAO_0000019

>  <Published Type>  (488) 
nan

>  <Published Relation>  (488) 
nan

>  <Published Value>  (488) 
nan

>  <Published Units>  (488) 
nan

>  <Canonical Smiles>  (488) 
FC(F)(F)c1ccc(Cn2cc(nn2)c3ccc4[nH]ncc4c3)c(c1)C(F)(F)F

>  <Data Validity Comment>  (488) 
nan

>  <Document Journal>  (488) 
nan

>  <Document Year>  (488) 
nan

>  <SRC ID>  (488) 
7

>  <UO Units>  (488) 
UO_0000065

>  <Potential Duplicate>  (488) 
False

>  <Class>  (488) 
0

$$$$

     RDKit          2D

 27 30  0  0  0  0  0  0  0  0999 V2000
    3.0000    0.0000    0.0000 N   0  0  0  0  0  0  0  0  0  0  0  0
    1.5000    0.0000    0.0000 C   0  0  0  0  0  0  0  0  0  0  0  0
    0.7500   -1.2990    0.0000 N   0  0  0  0  0  0  0  0  0  0  0  0
   -0.7500   -1.2990    0.0000 C   0  0  0  0  0  0  0  0  0  0  0  0
   -1.5000    0.0000    0.0000 C   0  0  0  0  0  0  0  0  0  0  0  0
   -0.7500    1.2990    0.0000 C   0  0  0  0  0  0  0  0  0  0  0  0
   -1.2135    2.7256    0.0000 S   0  0  0  0  0  0  0  0  0  0  0  0
   -0.0000    3.6073    0.0000 C   0  0  0  0  0  0  0  0  0  0  0  0
    1.2135    2.7256    0.0000 C   0  0  0  0  0  0  0  0  0  0  0  0
    2.6401    3.1891    0.0000 C   0  0  0  0  0  0  0  0  0  0  0  0
    3.7548    2.1855    0.0000 C   0  0  0  0  0  0  0  0  0  0  0  0
    5.1814    2.6490    0.0000 C   0  0  0  0  0  0  0  0  0  0  0  0
    5.4933    4.1162    0.0000 C   0  0  0  0  0  0  0  0  0  0  0  0
    6.9199    4.5797    0.0000 N   0  0  0  0  0  0  0  0  0  0  0  0
    8.0346    3.5760    0.0000 C   0  0  0  0  0  0  0  0  0  0  0  0
    7.7227    2.1088    0.0000 O   0  0  0  0  0  0  0  0  0  0  0  0
    9.4612    4.0396    0.0000 N   0  0  0  0  0  0  0  0  0  0  0  0
   10.5759    3.0359    0.0000 C   0  0  0  0  0  0  0  0  0  0  0  0
   10.2640    1.5686    0.0000 C   0  0  0  0  0  0  0  0  0  0  0  0
   11.3787    0.5649    0.0000 C   0  0  0  0  0  0  0  0  0  0  0  0
   12.8053    1.0285    0.0000 C   0  0  0  0  0  0  0  0  0  0  0  0
   13.1172    2.4957    0.0000 C   0  0  0  0  0  0  0  0  0  0  0  0
   14.5438    2.9592    0.0000 Cl  0  0  0  0  0  0  0  0  0  0  0  0
   12.0025    3.4994    0.0000 C   0  0  0  0  0  0  0  0  0  0  0  0
    4.3786    5.1199    0.0000 C   0  0  0  0  0  0  0  0  0  0  0  0
    2.9520    4.6564    0.0000 C   0  0  0  0  0  0  0  0  0  0  0  0
    0.7500    1.2990    0.0000 C   0  0  0  0  0  0  0  0  0  0  0  0
  1  2  1  0
  2  3  2  0
  3  4  1  0
  4  5  2  0
  5  6  1  0
  6  7  1  0
  7  8  1  0
  8  9  2  0
  9 10  1  0
 10 11  2  0
 11 12  1  0
 12 13  2  0
 13 14  1  0
 14 15  1  0
 15 16  2  0
 15 17  1  0
 17 18  1  0
 18 19  2  0
 19 20  1  0
 20 21  2  0
 21 22  1  0
 22 23  1  0
 22 24  2  0
 13 25  1  0
 25 26  2  0
  9 27  1  0
 27  2  1  0
 27  6  2  0
 26 10  1  0
 24 18  1  0
M  END
>  <Molecule>  (489) 
CHEMBL394790

>  <Standard Type>  (489) 
Ki

>  <Standard Relation>  (489) 
>

>  <Standard Value>  (489) 
1584.89

>  <Standard Units>  (489) 
nM

>  <pChEMBL Value>  (489) 
nan

>  <Comment>  (489) 
inactive

>  <Compound Key>  (489) 
SID103904359

>  <Assay>  (489) 
CHEMBL1963742

>  <Assay Description>  (489) 
PUBCHEM_BIOASSAY: Navigating the Kinome. (Class of assay: other) Panel member name: JAK3

>  <BAO Format>  (489) 
assay format

>  <Target>  (489) 
CHEMBL2148

>  <Target Pref. Name>  (489) 
Tyrosine-protein kinase JAK3

>  <Target Organism>  (489) 
Homo sapiens

>  <Target Type>  (489) 
SINGLE PROTEIN

>  <Document>  (489) 
CHEMBL1201862

>  <Source>  (489) 
PubChem BioAssays

>  <Max Phase>  (489) 
0

>  <#Ro5 Violations>  (489) 
1

>  <Molecular Weight>  (489) 
394.89

>  <Ligand Efficiency BEI>  (489) 
nan

>  <Ligand Efficiency LE>  (489) 
nan

>  <Ligand Efficiency LLE>  (489) 
nan

>  <Ligand Efficiency SEI>  (489) 
nan

>  <ALogP>  (489) 
5.84

>  <Assay Organism>  (489) 
nan

>  <Assay Tissue ChEMBL ID>  (489) 
nan

>  <Assay Tissue Name>  (489) 
nan

>  <Assay Cell Type>  (489) 
nan

>  <Assay Subcellular Fraction>  (489) 
nan

>  <Organism Tax ID>  (489) 
9606

>  <BAO Format ID>  (489) 
BAO_0000019

>  <Published Type>  (489) 
nan

>  <Published Relation>  (489) 
nan

>  <Published Value>  (489) 
nan

>  <Published Units>  (489) 
nan

>  <Canonical Smiles>  (489) 
Nc1nccc2scc(c3ccc(NC(=O)Nc4cccc(Cl)c4)cc3)c12

>  <Data Validity Comment>  (489) 
nan

>  <Document Journal>  (489) 
nan

>  <Document Year>  (489) 
nan

>  <SRC ID>  (489) 
7

>  <UO Units>  (489) 
UO_0000065

>  <Potential Duplicate>  (489) 
False

>  <Class>  (489) 
0

$$$$

     RDKit          2D

 36 40  0  0  0  0  0  0  0  0999 V2000
   -3.8876   -9.0580    0.0000 C   0  0  0  0  0  0  0  0  0  0  0  0
   -3.5757   -7.5908    0.0000 O   0  0  0  0  0  0  0  0  0  0  0  0
   -4.6904   -6.5871    0.0000 C   0  0  0  0  0  0  0  0  0  0  0  0
   -6.1170   -7.0506    0.0000 C   0  0  0  0  0  0  0  0  0  0  0  0
   -7.2317   -6.0469    0.0000 C   0  0  0  0  0  0  0  0  0  0  0  0
   -6.9199   -4.5797    0.0000 C   0  0  0  0  0  0  0  0  0  0  0  0
   -5.4933   -4.1162    0.0000 C   0  0  0  0  0  0  0  0  0  0  0  0
   -4.3786   -5.1199    0.0000 C   0  0  0  0  0  0  0  0  0  0  0  0
   -2.9520   -4.6564    0.0000 C   0  0  0  0  0  0  0  0  0  0  0  0
   -1.8373   -5.6601    0.0000 O   0  0  0  0  0  0  0  0  0  0  0  0
   -2.6401   -3.1891    0.0000 N   0  0  0  0  0  0  0  0  0  0  0  0
   -1.2135   -2.7256    0.0000 C   0  0  0  0  0  0  0  0  0  0  0  0
    0.0000   -3.6073    0.0000 N   0  0  0  0  0  0  0  0  0  0  0  0
    1.2135   -2.7256    0.0000 N   0  0  0  0  0  0  0  0  0  0  0  0
    0.7500   -1.2990    0.0000 C   0  0  0  0  0  0  0  0  0  0  0  0
    1.5000    0.0000    0.0000 C   0  0  0  0  0  0  0  0  0  0  0  0
    0.7500    1.2990    0.0000 C   0  0  0  0  0  0  0  0  0  0  0  0
   -0.7500    1.2990    0.0000 C   0  0  0  0  0  0  0  0  0  0  0  0
   -1.5000    2.5981    0.0000 C   0  0  0  0  0  0  0  0  0  0  0  0
   -0.7500    3.8971    0.0000 C   0  0  0  0  0  0  0  0  0  0  0  0
    0.7500    3.8971    0.0000 C   0  0  0  0  0  0  0  0  0  0  0  0
    1.5000    5.1962    0.0000 C   0  0  0  0  0  0  0  0  0  0  0  0
    3.0000    5.1962    0.0000 F   0  0  0  0  0  0  0  0  0  0  0  0
    0.7500    6.4952    0.0000 C   0  0  0  0  0  0  0  0  0  0  0  0
   -0.7500    6.4952    0.0000 C   0  0  0  0  0  0  0  0  0  0  0  0
   -1.5000    7.7942    0.0000 F   0  0  0  0  0  0  0  0  0  0  0  0
   -1.5000    5.1962    0.0000 C   0  0  0  0  0  0  0  0  0  0  0  0
   -1.5000    0.0000    0.0000 C   0  0  0  0  0  0  0  0  0  0  0  0
   -0.7500   -1.2990    0.0000 C   0  0  0  0  0  0  0  0  0  0  0  0
   -8.6583   -6.5105    0.0000 N   0  0  0  0  0  0  0  0  0  0  0  0
   -9.7730   -5.5068    0.0000 C   0  0  0  0  0  0  0  0  0  0  0  0
  -11.1996   -5.9703    0.0000 C   0  0  0  0  0  0  0  0  0  0  0  0
  -11.5115   -7.4375    0.0000 N   0  0  0  0  0  0  0  0  0  0  0  0
  -12.9381   -7.9010    0.0000 C   0  0  0  0  0  0  0  0  0  0  0  0
  -10.3968   -8.4412    0.0000 C   0  0  0  0  0  0  0  0  0  0  0  0
   -8.9702   -7.9777    0.0000 C   0  0  0  0  0  0  0  0  0  0  0  0
  1  2  1  0
  2  3  1  0
  3  4  2  0
  4  5  1  0
  5  6  2  0
  6  7  1  0
  7  8  2  0
  8  9  1  0
  9 10  2  0
  9 11  1  0
 11 12  1  0
 12 13  2  0
 13 14  1  0
 14 15  1  0
 15 16  2  0
 16 17  1  0
 17 18  2  0
 18 19  1  0
 19 20  1  0
 20 21  2  0
 21 22  1  0
 22 23  1  0
 22 24  2  0
 24 25  1  0
 25 26  1  0
 25 27  2  0
 18 28  1  0
 28 29  2  0
  5 30  1  0
 30 31  1  0
 31 32  1  0
 32 33  1  0
 33 34  1  0
 33 35  1  0
 35 36  1  0
  8  3  1  0
 29 12  1  0
 29 15  1  0
 27 20  1  0
 36 30  1  0
M  END
>  <Molecule>  (490) 
CHEMBL1973961

>  <Standard Type>  (490) 
Ki

>  <Standard Relation>  (490) 
>

>  <Standard Value>  (490) 
5011.87

>  <Standard Units>  (490) 
nM

>  <pChEMBL Value>  (490) 
nan

>  <Comment>  (490) 
inactive

>  <Compound Key>  (490) 
SID103905027

>  <Assay>  (490) 
CHEMBL1963742

>  <Assay Description>  (490) 
PUBCHEM_BIOASSAY: Navigating the Kinome. (Class of assay: other) Panel member name: JAK3

>  <BAO Format>  (490) 
assay format

>  <Target>  (490) 
CHEMBL2148

>  <Target Pref. Name>  (490) 
Tyrosine-protein kinase JAK3

>  <Target Organism>  (490) 
Homo sapiens

>  <Target Type>  (490) 
SINGLE PROTEIN

>  <Document>  (490) 
CHEMBL1201862

>  <Source>  (490) 
PubChem BioAssays

>  <Max Phase>  (490) 
0

>  <#Ro5 Violations>  (490) 
0

>  <Molecular Weight>  (490) 
491.54

>  <Ligand Efficiency BEI>  (490) 
nan

>  <Ligand Efficiency LE>  (490) 
nan

>  <Ligand Efficiency LLE>  (490) 
nan

>  <Ligand Efficiency SEI>  (490) 
nan

>  <ALogP>  (490) 
4.44

>  <Assay Organism>  (490) 
nan

>  <Assay Tissue ChEMBL ID>  (490) 
nan

>  <Assay Tissue Name>  (490) 
nan

>  <Assay Cell Type>  (490) 
nan

>  <Assay Subcellular Fraction>  (490) 
nan

>  <Organism Tax ID>  (490) 
9606

>  <BAO Format ID>  (490) 
BAO_0000019

>  <Published Type>  (490) 
nan

>  <Published Relation>  (490) 
nan

>  <Published Value>  (490) 
nan

>  <Published Units>  (490) 
nan

>  <Canonical Smiles>  (490) 
COc1cc(ccc1C(=O)Nc2n[nH]c3ccc(Cc4cc(F)cc(F)c4)cc23)N5CCN(C)CC5

>  <Data Validity Comment>  (490) 
nan

>  <Document Journal>  (490) 
nan

>  <Document Year>  (490) 
nan

>  <SRC ID>  (490) 
7

>  <UO Units>  (490) 
UO_0000065

>  <Potential Duplicate>  (490) 
False

>  <Class>  (490) 
0

$$$$

     RDKit          2D

 24 26  0  0  0  0  0  0  0  0999 V2000
   -3.0000  -12.9904    0.0000 C   0  0  0  0  0  0  0  0  0  0  0  0
   -1.5000  -12.9904    0.0000 N   0  0  0  0  0  0  0  0  0  0  0  0
   -0.7500  -14.2894    0.0000 C   0  0  0  0  0  0  0  0  0  0  0  0
   -0.7500  -11.6913    0.0000 C   0  0  0  0  0  0  0  0  0  0  0  0
   -1.5000  -10.3923    0.0000 C   0  0  0  0  0  0  0  0  0  0  0  0
   -0.7500   -9.0933    0.0000 C   0  0  0  0  0  0  0  0  0  0  0  0
    0.7500   -9.0933    0.0000 C   0  0  0  0  0  0  0  0  0  0  0  0
    1.5000   -7.7942    0.0000 N   0  0  0  0  0  0  0  0  0  0  0  0
    0.7500   -6.4952    0.0000 C   0  0  0  0  0  0  0  0  0  0  0  0
   -0.7500   -6.4952    0.0000 O   0  0  0  0  0  0  0  0  0  0  0  0
    1.5000   -5.1962    0.0000 C   0  0  0  0  0  0  0  0  0  0  0  0
    0.7500   -3.8971    0.0000 C   0  0  0  0  0  0  0  0  0  0  0  0
    1.5000   -2.5981    0.0000 N   0  0  0  0  0  0  0  0  0  0  0  0
    0.7500   -1.2990    0.0000 C   0  0  0  0  0  0  0  0  0  0  0  0
    1.5000    0.0000    0.0000 C   0  0  0  0  0  0  0  0  0  0  0  0
    0.7500    1.2990    0.0000 C   0  0  0  0  0  0  0  0  0  0  0  0
   -0.7500    1.2990    0.0000 C   0  0  0  0  0  0  0  0  0  0  0  0
   -1.5000    0.0000    0.0000 C   0  0  0  0  0  0  0  0  0  0  0  0
   -0.7500   -1.2990    0.0000 C   0  0  0  0  0  0  0  0  0  0  0  0
   -1.5000   -2.5981    0.0000 N   0  0  0  0  0  0  0  0  0  0  0  0
   -0.7500   -3.8971    0.0000 C   0  0  0  0  0  0  0  0  0  0  0  0
   -1.5000   -5.1962    0.0000 O   0  0  0  0  0  0  0  0  0  0  0  0
    1.5000  -10.3923    0.0000 C   0  0  0  0  0  0  0  0  0  0  0  0
    0.7500  -11.6913    0.0000 C   0  0  0  0  0  0  0  0  0  0  0  0
  1  2  1  0
  2  3  1  0
  2  4  1  0
  4  5  2  0
  5  6  1  0
  6  7  2  0
  7  8  1  0
  8  9  1  0
  9 10  2  0
  9 11  1  0
 11 12  1  0
 12 13  1  0
 13 14  1  0
 14 15  2  0
 15 16  1  0
 16 17  2  0
 17 18  1  0
 18 19  2  0
 19 20  1  0
 20 21  1  0
 21 22  2  0
  7 23  1  0
 23 24  2  0
 24  4  1  0
 21 12  1  0
 19 14  1  0
M  END
>  <Molecule>  (491) 
CHEMBL1985469

>  <Standard Type>  (491) 
Ki

>  <Standard Relation>  (491) 
>

>  <Standard Value>  (491) 
5011.87

>  <Standard Units>  (491) 
nM

>  <pChEMBL Value>  (491) 
nan

>  <Comment>  (491) 
inactive

>  <Compound Key>  (491) 
SID103905054

>  <Assay>  (491) 
CHEMBL1963742

>  <Assay Description>  (491) 
PUBCHEM_BIOASSAY: Navigating the Kinome. (Class of assay: other) Panel member name: JAK3

>  <BAO Format>  (491) 
assay format

>  <Target>  (491) 
CHEMBL2148

>  <Target Pref. Name>  (491) 
Tyrosine-protein kinase JAK3

>  <Target Organism>  (491) 
Homo sapiens

>  <Target Type>  (491) 
SINGLE PROTEIN

>  <Document>  (491) 
CHEMBL1201862

>  <Source>  (491) 
PubChem BioAssays

>  <Max Phase>  (491) 
0

>  <#Ro5 Violations>  (491) 
0

>  <Molecular Weight>  (491) 
324.38

>  <Ligand Efficiency BEI>  (491) 
nan

>  <Ligand Efficiency LE>  (491) 
nan

>  <Ligand Efficiency LLE>  (491) 
nan

>  <Ligand Efficiency SEI>  (491) 
nan

>  <ALogP>  (491) 
2.51

>  <Assay Organism>  (491) 
nan

>  <Assay Tissue ChEMBL ID>  (491) 
nan

>  <Assay Tissue Name>  (491) 
nan

>  <Assay Cell Type>  (491) 
nan

>  <Assay Subcellular Fraction>  (491) 
nan

>  <Organism Tax ID>  (491) 
9606

>  <BAO Format ID>  (491) 
BAO_0000019

>  <Published Type>  (491) 
nan

>  <Published Relation>  (491) 
nan

>  <Published Value>  (491) 
nan

>  <Published Units>  (491) 
nan

>  <Canonical Smiles>  (491) 
CN(C)c1ccc(NC(=O)CC2Nc3ccccc3NC2=O)cc1

>  <Data Validity Comment>  (491) 
nan

>  <Document Journal>  (491) 
nan

>  <Document Year>  (491) 
nan

>  <SRC ID>  (491) 
7

>  <UO Units>  (491) 
UO_0000065

>  <Potential Duplicate>  (491) 
False

>  <Class>  (491) 
0

$$$$

     RDKit          2D

 35 38  0  0  0  0  0  0  0  0999 V2000
    3.0000   -7.7942    0.0000 C   0  0  0  0  0  0  0  0  0  0  0  0
    3.7500   -9.0933    0.0000 N   0  0  0  0  0  0  0  0  0  0  0  0
    3.0000  -10.3923    0.0000 C   0  0  0  0  0  0  0  0  0  0  0  0
    3.7500  -11.6913    0.0000 N   0  0  0  0  0  0  0  0  0  0  0  0
    3.0000  -12.9904    0.0000 C   0  0  0  0  0  0  0  0  0  0  0  0
    1.5000  -12.9904    0.0000 C   0  0  0  0  0  0  0  0  0  0  0  0
    0.7500  -11.6913    0.0000 C   0  0  0  0  0  0  0  0  0  0  0  0
    1.5000  -10.3923    0.0000 C   0  0  0  0  0  0  0  0  0  0  0  0
    0.7500   -9.0933    0.0000 C   0  0  0  0  0  0  0  0  0  0  0  0
    1.5000   -7.7942    0.0000 N   0  0  0  0  0  0  0  0  0  0  0  0
    0.7500   -6.4952    0.0000 C   0  0  0  0  0  0  0  0  0  0  0  0
    1.5000   -5.1962    0.0000 N   0  0  0  0  0  0  0  0  0  0  0  0
    0.7500   -3.8971    0.0000 C   0  0  0  0  0  0  0  0  0  0  0  0
    1.5000   -2.5981    0.0000 N   0  0  0  0  0  0  0  0  0  0  0  0
    0.7500   -1.2990    0.0000 C   0  0  0  0  0  0  0  0  0  0  0  0
    1.5000    0.0000    0.0000 C   0  0  0  0  0  0  0  0  0  0  0  0
    0.7500    1.2990    0.0000 C   0  0  0  0  0  0  0  0  0  0  0  0
   -0.7500    1.2990    0.0000 C   0  0  0  0  0  0  0  0  0  0  0  0
   -1.7537    2.4138    0.0000 N   0  0  0  0  0  0  0  0  0  0  0  0
   -3.1240    1.8037    0.0000 C   0  0  0  0  0  0  0  0  0  0  0  0
   -4.4231    2.5537    0.0000 O   0  0  0  0  0  0  0  0  0  0  0  0
   -2.9672    0.3119    0.0000 C   0  0  0  0  0  0  0  0  0  0  0  0
   -1.5000    0.0000    0.0000 C   0  0  0  0  0  0  0  0  0  0  0  0
   -0.7500   -1.2990    0.0000 C   0  0  0  0  0  0  0  0  0  0  0  0
   -0.7500   -3.8971    0.0000 N   0  0  0  0  0  0  0  0  0  0  0  0
   -1.5000   -5.1962    0.0000 C   0  0  0  0  0  0  0  0  0  0  0  0
   -0.7500   -6.4952    0.0000 C   0  0  0  0  0  0  0  0  0  0  0  0
   -1.5000   -7.7942    0.0000 C   0  0  0  0  0  0  0  0  0  0  0  0
   -2.2500   -9.0933    0.0000 F   0  0  0  0  0  0  0  0  0  0  0  0
   -2.7990   -7.0442    0.0000 F   0  0  0  0  0  0  0  0  0  0  0  0
   -0.2010   -8.5442    0.0000 F   0  0  0  0  0  0  0  0  0  0  0  0
    5.2500   -9.0933    0.0000 S   0  0  0  0  0  0  0  0  0  0  0  0
    5.2500   -7.5933    0.0000 O   0  0  0  0  0  0  0  0  0  0  0  0
    5.2500  -10.5933    0.0000 O   0  0  0  0  0  0  0  0  0  0  0  0
    6.7500   -9.0933    0.0000 C   0  0  0  0  0  0  0  0  0  0  0  0
  1  2  1  0
  2  3  1  0
  3  4  2  0
  4  5  1  0
  5  6  2  0
  6  7  1  0
  7  8  2  0
  8  9  1  0
  9 10  1  0
 10 11  1  0
 11 12  2  0
 12 13  1  0
 13 14  1  0
 14 15  1  0
 15 16  2  0
 16 17  1  0
 17 18  2  0
 18 19  1  0
 19 20  1  0
 20 21  2  0
 20 22  1  0
 22 23  1  0
 23 24  2  0
 13 25  2  0
 25 26  1  0
 26 27  2  0
 27 28  1  0
 28 29  1  0
 28 30  1  0
 28 31  1  0
  2 32  1  0
 32 33  2  0
 32 34  2  0
 32 35  1  0
  8  3  1  0
 27 11  1  0
 24 15  1  0
 23 18  1  0
M  END
>  <Molecule>  (492) 
CHEMBL1084546

>  <Standard Type>  (492) 
Ki

>  <Standard Relation>  (492) 
=

>  <Standard Value>  (492) 
1000.0

>  <Standard Units>  (492) 
nM

>  <pChEMBL Value>  (492) 
6.0

>  <Comment>  (492) 
active

>  <Compound Key>  (492) 
SID103905684

>  <Assay>  (492) 
CHEMBL1963742

>  <Assay Description>  (492) 
PUBCHEM_BIOASSAY: Navigating the Kinome. (Class of assay: other) Panel member name: JAK3

>  <BAO Format>  (492) 
assay format

>  <Target>  (492) 
CHEMBL2148

>  <Target Pref. Name>  (492) 
Tyrosine-protein kinase JAK3

>  <Target Organism>  (492) 
Homo sapiens

>  <Target Type>  (492) 
SINGLE PROTEIN

>  <Document>  (492) 
CHEMBL1201862

>  <Source>  (492) 
PubChem BioAssays

>  <Max Phase>  (492) 
1

>  <#Ro5 Violations>  (492) 
1

>  <Molecular Weight>  (492) 
507.5

>  <Ligand Efficiency BEI>  (492) 
nan

>  <Ligand Efficiency LE>  (492) 
nan

>  <Ligand Efficiency LLE>  (492) 
nan

>  <Ligand Efficiency SEI>  (492) 
nan

>  <ALogP>  (492) 
3.14

>  <Assay Organism>  (492) 
nan

>  <Assay Tissue ChEMBL ID>  (492) 
nan

>  <Assay Tissue Name>  (492) 
nan

>  <Assay Cell Type>  (492) 
nan

>  <Assay Subcellular Fraction>  (492) 
nan

>  <Organism Tax ID>  (492) 
9606

>  <BAO Format ID>  (492) 
BAO_0000019

>  <Published Type>  (492) 
nan

>  <Published Relation>  (492) 
nan

>  <Published Value>  (492) 
nan

>  <Published Units>  (492) 
nan

>  <Canonical Smiles>  (492) 
CN(c1ncccc1CNc2nc(Nc3ccc4NC(=O)Cc4c3)ncc2C(F)(F)F)S(=O)(=O)C

>  <Data Validity Comment>  (492) 
nan

>  <Document Journal>  (492) 
nan

>  <Document Year>  (492) 
nan

>  <SRC ID>  (492) 
7

>  <UO Units>  (492) 
UO_0000065

>  <Potential Duplicate>  (492) 
False

>  <Class>  (492) 
1

$$$$

     RDKit          2D

 30 33  0  0  0  0  0  0  0  0999 V2000
   -4.6883    2.2939    0.0000 C   0  0  0  0  0  0  0  0  0  0  0  0
   -3.5736    1.2902    0.0000 O   0  0  0  0  0  0  0  0  0  0  0  0
   -2.1470    1.7537    0.0000 C   0  0  0  0  0  0  0  0  0  0  0  0
   -1.8351    3.2209    0.0000 C   0  0  0  0  0  0  0  0  0  0  0  0
   -0.4086    3.6844    0.0000 C   0  0  0  0  0  0  0  0  0  0  0  0
    0.7062    2.6807    0.0000 C   0  0  0  0  0  0  0  0  0  0  0  0
    2.1328    3.1443    0.0000 C   0  0  0  0  0  0  0  0  0  0  0  0
    3.2475    2.1406    0.0000 C   0  0  0  0  0  0  0  0  0  0  0  0
    4.6741    2.6041    0.0000 C   0  0  0  0  0  0  0  0  0  0  0  0
    4.9859    4.0713    0.0000 C   0  0  0  0  0  0  0  0  0  0  0  0
    6.4125    4.5348    0.0000 N   0  0  0  0  0  0  0  0  0  0  0  0
    7.5272    3.5312    0.0000 C   0  0  0  0  0  0  0  0  0  0  0  0
    7.2154    2.0639    0.0000 O   0  0  0  0  0  0  0  0  0  0  0  0
    8.9538    3.9947    0.0000 N   0  0  0  0  0  0  0  0  0  0  0  0
   10.0685    2.9910    0.0000 C   0  0  0  0  0  0  0  0  0  0  0  0
    9.7567    1.5238    0.0000 C   0  0  0  0  0  0  0  0  0  0  0  0
   10.8714    0.5201    0.0000 C   0  0  0  0  0  0  0  0  0  0  0  0
   12.2980    0.9836    0.0000 C   0  0  0  0  0  0  0  0  0  0  0  0
   13.4127   -0.0201    0.0000 F   0  0  0  0  0  0  0  0  0  0  0  0
   12.6098    2.4508    0.0000 C   0  0  0  0  0  0  0  0  0  0  0  0
   14.0364    2.9143    0.0000 C   0  0  0  0  0  0  0  0  0  0  0  0
   11.4951    3.4545    0.0000 C   0  0  0  0  0  0  0  0  0  0  0  0
    3.8712    5.0750    0.0000 C   0  0  0  0  0  0  0  0  0  0  0  0
    2.4446    4.6115    0.0000 C   0  0  0  0  0  0  0  0  0  0  0  0
    0.3943    1.2135    0.0000 C   0  0  0  0  0  0  0  0  0  0  0  0
    1.2760    0.0000    0.0000 C   0  0  0  0  0  0  0  0  0  0  0  0
    2.7760    0.0000    0.0000 N   0  0  0  0  0  0  0  0  0  0  0  0
    0.3943   -1.2135    0.0000 N   0  0  0  0  0  0  0  0  0  0  0  0
   -1.0323   -0.7500    0.0000 O   0  0  0  0  0  0  0  0  0  0  0  0
   -1.0323    0.7500    0.0000 C   0  0  0  0  0  0  0  0  0  0  0  0
  1  2  1  0
  2  3  1  0
  3  4  2  0
  4  5  1  0
  5  6  2  0
  6  7  1  0
  7  8  2  0
  8  9  1  0
  9 10  2  0
 10 11  1  0
 11 12  1  0
 12 13  2  0
 12 14  1  0
 14 15  1  0
 15 16  2  0
 16 17  1  0
 17 18  2  0
 18 19  1  0
 18 20  1  0
 20 21  1  0
 20 22  2  0
 10 23  1  0
 23 24  2  0
  6 25  1  0
 25 26  1  0
 26 27  1  0
 26 28  2  0
 28 29  1  0
 29 30  1  0
 30  3  1  0
 24  7  1  0
 22 15  1  0
 30 25  2  0
M  END
>  <Molecule>  (493) 
CHEMBL1979093

>  <Standard Type>  (493) 
Ki

>  <Standard Relation>  (493) 
>

>  <Standard Value>  (493) 
1584.89

>  <Standard Units>  (493) 
nM

>  <pChEMBL Value>  (493) 
nan

>  <Comment>  (493) 
inactive

>  <Compound Key>  (493) 
SID103904351

>  <Assay>  (493) 
CHEMBL1963742

>  <Assay Description>  (493) 
PUBCHEM_BIOASSAY: Navigating the Kinome. (Class of assay: other) Panel member name: JAK3

>  <BAO Format>  (493) 
assay format

>  <Target>  (493) 
CHEMBL2148

>  <Target Pref. Name>  (493) 
Tyrosine-protein kinase JAK3

>  <Target Organism>  (493) 
Homo sapiens

>  <Target Type>  (493) 
SINGLE PROTEIN

>  <Document>  (493) 
CHEMBL1201862

>  <Source>  (493) 
PubChem BioAssays

>  <Max Phase>  (493) 
0

>  <#Ro5 Violations>  (493) 
1

>  <Molecular Weight>  (493) 
406.42

>  <Ligand Efficiency BEI>  (493) 
nan

>  <Ligand Efficiency LE>  (493) 
nan

>  <Ligand Efficiency LLE>  (493) 
nan

>  <Ligand Efficiency SEI>  (493) 
nan

>  <ALogP>  (493) 
5.18

>  <Assay Organism>  (493) 
nan

>  <Assay Tissue ChEMBL ID>  (493) 
nan

>  <Assay Tissue Name>  (493) 
nan

>  <Assay Cell Type>  (493) 
nan

>  <Assay Subcellular Fraction>  (493) 
nan

>  <Organism Tax ID>  (493) 
9606

>  <BAO Format ID>  (493) 
BAO_0000019

>  <Published Type>  (493) 
nan

>  <Published Relation>  (493) 
nan

>  <Published Value>  (493) 
nan

>  <Published Units>  (493) 
nan

>  <Canonical Smiles>  (493) 
COc1ccc(c2ccc(NC(=O)Nc3ccc(F)c(C)c3)cc2)c4c(N)noc14

>  <Data Validity Comment>  (493) 
nan

>  <Document Journal>  (493) 
nan

>  <Document Year>  (493) 
nan

>  <SRC ID>  (493) 
7

>  <UO Units>  (493) 
UO_0000065

>  <Potential Duplicate>  (493) 
False

>  <Class>  (493) 
0

$$$$

     RDKit          2D

 19 21  0  0  0  0  0  0  0  0999 V2000
    3.0000    0.0000    0.0000 Cl  0  0  0  0  0  0  0  0  0  0  0  0
    1.5000    0.0000    0.0000 C   0  0  0  0  0  0  0  0  0  0  0  0
    0.7500   -1.2990    0.0000 C   0  0  0  0  0  0  0  0  0  0  0  0
   -0.7500   -1.2990    0.0000 C   0  0  0  0  0  0  0  0  0  0  0  0
   -1.5000    0.0000    0.0000 C   0  0  0  0  0  0  0  0  0  0  0  0
   -0.7500    1.2990    0.0000 C   0  0  0  0  0  0  0  0  0  0  0  0
    0.7500    1.2990    0.0000 C   0  0  0  0  0  0  0  0  0  0  0  0
    1.5000    2.5981    0.0000 Cl  0  0  0  0  0  0  0  0  0  0  0  0
   -3.0000    0.0000    0.0000 C   0  0  0  0  0  0  0  0  0  0  0  0
   -3.8817   -1.2135    0.0000 N   0  0  0  0  0  0  0  0  0  0  0  0
   -5.3083   -0.7500    0.0000 N   0  0  0  0  0  0  0  0  0  0  0  0
   -5.3083    0.7500    0.0000 C   0  0  0  0  0  0  0  0  0  0  0  0
   -3.8817    1.2135    0.0000 C   0  0  0  0  0  0  0  0  0  0  0  0
   -3.4182    2.6401    0.0000 C   0  0  0  0  0  0  0  0  0  0  0  0
   -1.9509    2.9520    0.0000 C   0  0  0  0  0  0  0  0  0  0  0  0
   -1.4874    4.3786    0.0000 C   0  0  0  0  0  0  0  0  0  0  0  0
   -2.4911    5.4933    0.0000 N   0  0  0  0  0  0  0  0  0  0  0  0
   -3.9583    5.1814    0.0000 C   0  0  0  0  0  0  0  0  0  0  0  0
   -4.4218    3.7548    0.0000 N   0  0  0  0  0  0  0  0  0  0  0  0
  1  2  1  0
  2  3  2  0
  3  4  1  0
  4  5  2  0
  5  6  1  0
  6  7  2  0
  7  8  1  0
  5  9  1  0
  9 10  2  0
 10 11  1  0
 11 12  1  0
 12 13  2  0
 13 14  1  0
 14 15  2  0
 15 16  1  0
 16 17  2  0
 17 18  1  0
 18 19  2  0
  7  2  1  0
 13  9  1  0
 19 14  1  0
M  END
>  <Molecule>  (494) 
CHEMBL1984191

>  <Standard Type>  (494) 
Ki

>  <Standard Relation>  (494) 
>

>  <Standard Value>  (494) 
1584.89

>  <Standard Units>  (494) 
nM

>  <pChEMBL Value>  (494) 
nan

>  <Comment>  (494) 
inactive

>  <Compound Key>  (494) 
SID103905424

>  <Assay>  (494) 
CHEMBL1963742

>  <Assay Description>  (494) 
PUBCHEM_BIOASSAY: Navigating the Kinome. (Class of assay: other) Panel member name: JAK3

>  <BAO Format>  (494) 
assay format

>  <Target>  (494) 
CHEMBL2148

>  <Target Pref. Name>  (494) 
Tyrosine-protein kinase JAK3

>  <Target Organism>  (494) 
Homo sapiens

>  <Target Type>  (494) 
SINGLE PROTEIN

>  <Document>  (494) 
CHEMBL1201862

>  <Source>  (494) 
PubChem BioAssays

>  <Max Phase>  (494) 
0

>  <#Ro5 Violations>  (494) 
0

>  <Molecular Weight>  (494) 
291.14

>  <Ligand Efficiency BEI>  (494) 
nan

>  <Ligand Efficiency LE>  (494) 
nan

>  <Ligand Efficiency LLE>  (494) 
nan

>  <Ligand Efficiency SEI>  (494) 
nan

>  <ALogP>  (494) 
3.84

>  <Assay Organism>  (494) 
nan

>  <Assay Tissue ChEMBL ID>  (494) 
nan

>  <Assay Tissue Name>  (494) 
nan

>  <Assay Cell Type>  (494) 
nan

>  <Assay Subcellular Fraction>  (494) 
nan

>  <Organism Tax ID>  (494) 
9606

>  <BAO Format ID>  (494) 
BAO_0000019

>  <Published Type>  (494) 
nan

>  <Published Relation>  (494) 
nan

>  <Published Value>  (494) 
nan

>  <Published Units>  (494) 
nan

>  <Canonical Smiles>  (494) 
Clc1ccc(cc1Cl)c2n[nH]cc2c3ccncn3

>  <Data Validity Comment>  (494) 
nan

>  <Document Journal>  (494) 
nan

>  <Document Year>  (494) 
nan

>  <SRC ID>  (494) 
7

>  <UO Units>  (494) 
UO_0000065

>  <Potential Duplicate>  (494) 
False

>  <Class>  (494) 
0

$$$$

     RDKit          2D

 24 28  0  0  0  0  0  0  0  0999 V2000
   -4.4752    7.7937    0.0000 C   0  0  0  0  0  0  0  0  0  0  0  0
   -4.1634    6.3265    0.0000 C   0  0  0  0  0  0  0  0  0  0  0  0
   -2.7931    5.7164    0.0000 C   0  0  0  0  0  0  0  0  0  0  0  0
   -2.9499    4.2246    0.0000 N   0  0  0  0  0  0  0  0  0  0  0  0
   -4.4171    3.9127    0.0000 N   0  0  0  0  0  0  0  0  0  0  0  0
   -5.1671    5.2118    0.0000 N   0  0  0  0  0  0  0  0  0  0  0  0
   -1.8351    3.2209    0.0000 C   0  0  0  0  0  0  0  0  0  0  0  0
   -0.4086    3.6844    0.0000 C   0  0  0  0  0  0  0  0  0  0  0  0
    0.7062    2.6807    0.0000 C   0  0  0  0  0  0  0  0  0  0  0  0
    0.3943    1.2135    0.0000 C   0  0  0  0  0  0  0  0  0  0  0  0
    1.2760    0.0000    0.0000 N   0  0  0  0  0  0  0  0  0  0  0  0
    0.3943   -1.2135    0.0000 N   0  0  0  0  0  0  0  0  0  0  0  0
   -1.0323   -0.7500    0.0000 C   0  0  0  0  0  0  0  0  0  0  0  0
   -1.0323    0.7500    0.0000 C   0  0  0  0  0  0  0  0  0  0  0  0
   -2.1470    1.7537    0.0000 C   0  0  0  0  0  0  0  0  0  0  0  0
   -3.3605    8.7974    0.0000 N   0  0  0  0  0  0  0  0  0  0  0  0
   -1.8933    8.4856    0.0000 N   0  0  0  0  0  0  0  0  0  0  0  0
   -1.1433    9.7846    0.0000 N   0  0  0  0  0  0  0  0  0  0  0  0
   -2.1470   10.8993    0.0000 C   0  0  0  0  0  0  0  0  0  0  0  0
   -1.9902   12.3911    0.0000 C   0  0  0  0  0  0  0  0  0  0  0  0
   -3.2037   13.2728    0.0000 C   0  0  0  0  0  0  0  0  0  0  0  0
   -4.5741   12.6627    0.0000 C   0  0  0  0  0  0  0  0  0  0  0  0
   -4.7308   11.1709    0.0000 C   0  0  0  0  0  0  0  0  0  0  0  0
   -3.5173   10.2892    0.0000 C   0  0  0  0  0  0  0  0  0  0  0  0
  1  2  1  0
  2  3  2  0
  3  4  1  0
  4  5  1  0
  5  6  2  0
  4  7  1  0
  7  8  2  0
  8  9  1  0
  9 10  2  0
 10 11  1  0
 11 12  1  0
 12 13  2  0
 13 14  1  0
 14 15  2  0
  1 16  1  0
 16 17  1  0
 17 18  2  0
 18 19  1  0
 19 20  2  0
 20 21  1  0
 21 22  2  0
 22 23  1  0
 23 24  2  0
  6  2  1  0
 15  7  1  0
 14 10  1  0
 24 16  1  0
 24 19  1  0
M  END
>  <Molecule>  (495) 
CHEMBL1966069

>  <Standard Type>  (495) 
Ki

>  <Standard Relation>  (495) 
>

>  <Standard Value>  (495) 
1584.89

>  <Standard Units>  (495) 
nM

>  <pChEMBL Value>  (495) 
nan

>  <Comment>  (495) 
inactive

>  <Compound Key>  (495) 
SID103905296

>  <Assay>  (495) 
CHEMBL1963742

>  <Assay Description>  (495) 
PUBCHEM_BIOASSAY: Navigating the Kinome. (Class of assay: other) Panel member name: JAK3

>  <BAO Format>  (495) 
assay format

>  <Target>  (495) 
CHEMBL2148

>  <Target Pref. Name>  (495) 
Tyrosine-protein kinase JAK3

>  <Target Organism>  (495) 
Homo sapiens

>  <Target Type>  (495) 
SINGLE PROTEIN

>  <Document>  (495) 
CHEMBL1201862

>  <Source>  (495) 
PubChem BioAssays

>  <Max Phase>  (495) 
0

>  <#Ro5 Violations>  (495) 
0

>  <Molecular Weight>  (495) 
316.33

>  <Ligand Efficiency BEI>  (495) 
nan

>  <Ligand Efficiency LE>  (495) 
nan

>  <Ligand Efficiency LLE>  (495) 
nan

>  <Ligand Efficiency SEI>  (495) 
nan

>  <ALogP>  (495) 
1.94

>  <Assay Organism>  (495) 
nan

>  <Assay Tissue ChEMBL ID>  (495) 
nan

>  <Assay Tissue Name>  (495) 
nan

>  <Assay Cell Type>  (495) 
nan

>  <Assay Subcellular Fraction>  (495) 
nan

>  <Organism Tax ID>  (495) 
9606

>  <BAO Format ID>  (495) 
BAO_0000019

>  <Published Type>  (495) 
nan

>  <Published Relation>  (495) 
nan

>  <Published Value>  (495) 
nan

>  <Published Units>  (495) 
nan

>  <Canonical Smiles>  (495) 
C(c1cn(nn1)c2ccc3[nH]ncc3c2)n4nnc5ccccc45

>  <Data Validity Comment>  (495) 
nan

>  <Document Journal>  (495) 
nan

>  <Document Year>  (495) 
nan

>  <SRC ID>  (495) 
7

>  <UO Units>  (495) 
UO_0000065

>  <Potential Duplicate>  (495) 
False

>  <Class>  (495) 
0

$$$$

     RDKit          2D

 28 31  0  0  0  0  0  0  0  0999 V2000
    3.7500  -14.2894    0.0000 C   0  0  0  0  0  0  0  0  0  0  0  0
    3.0000  -12.9904    0.0000 C   0  0  0  0  0  0  0  0  0  0  0  0
    1.5000  -12.9904    0.0000 C   0  0  0  0  0  0  0  0  0  0  0  0
    0.7500  -11.6913    0.0000 C   0  0  0  0  0  0  0  0  0  0  0  0
    1.5000  -10.3923    0.0000 C   0  0  0  0  0  0  0  0  0  0  0  0
    0.7500   -9.0933    0.0000 F   0  0  0  0  0  0  0  0  0  0  0  0
    3.0000  -10.3923    0.0000 C   0  0  0  0  0  0  0  0  0  0  0  0
    3.7500   -9.0933    0.0000 N   0  0  0  0  0  0  0  0  0  0  0  0
    3.0000   -7.7942    0.0000 C   0  0  0  0  0  0  0  0  0  0  0  0
    1.5000   -7.7942    0.0000 O   0  0  0  0  0  0  0  0  0  0  0  0
    3.7500   -6.4952    0.0000 N   0  0  0  0  0  0  0  0  0  0  0  0
    3.0000   -5.1962    0.0000 C   0  0  0  0  0  0  0  0  0  0  0  0
    3.7500   -3.8971    0.0000 C   0  0  0  0  0  0  0  0  0  0  0  0
    3.0000   -2.5981    0.0000 C   0  0  0  0  0  0  0  0  0  0  0  0
    1.5000   -2.5981    0.0000 C   0  0  0  0  0  0  0  0  0  0  0  0
    0.7500   -3.8971    0.0000 C   0  0  0  0  0  0  0  0  0  0  0  0
    1.5000   -5.1962    0.0000 C   0  0  0  0  0  0  0  0  0  0  0  0
    0.7500   -1.2990    0.0000 C   0  0  0  0  0  0  0  0  0  0  0  0
    1.5000    0.0000    0.0000 C   0  0  0  0  0  0  0  0  0  0  0  0
    0.7500    1.2990    0.0000 C   0  0  0  0  0  0  0  0  0  0  0  0
   -0.7500    1.2990    0.0000 C   0  0  0  0  0  0  0  0  0  0  0  0
   -1.5000    0.0000    0.0000 C   0  0  0  0  0  0  0  0  0  0  0  0
   -2.9672   -0.3119    0.0000 N   0  0  0  0  0  0  0  0  0  0  0  0
   -3.1240   -1.8037    0.0000 N   0  0  0  0  0  0  0  0  0  0  0  0
   -1.7537   -2.4138    0.0000 C   0  0  0  0  0  0  0  0  0  0  0  0
   -1.4418   -3.8810    0.0000 N   0  0  0  0  0  0  0  0  0  0  0  0
   -0.7500   -1.2990    0.0000 C   0  0  0  0  0  0  0  0  0  0  0  0
    3.7500  -11.6913    0.0000 C   0  0  0  0  0  0  0  0  0  0  0  0
  1  2  1  0
  2  3  2  0
  3  4  1  0
  4  5  2  0
  5  6  1  0
  5  7  1  0
  7  8  1  0
  8  9  1  0
  9 10  2  0
  9 11  1  0
 11 12  1  0
 12 13  2  0
 13 14  1  0
 14 15  2  0
 15 16  1  0
 16 17  2  0
 15 18  1  0
 18 19  2  0
 19 20  1  0
 20 21  2  0
 21 22  1  0
 22 23  1  0
 23 24  1  0
 24 25  2  0
 25 26  1  0
 25 27  1  0
  7 28  2  0
 28  2  1  0
 17 12  1  0
 27 18  1  0
 27 22  2  0
M  END
>  <Molecule>  (496) 
CHEMBL223360

>  <Standard Type>  (496) 
Ki

>  <Standard Relation>  (496) 
>

>  <Standard Value>  (496) 
5011.87

>  <Standard Units>  (496) 
nM

>  <pChEMBL Value>  (496) 
nan

>  <Comment>  (496) 
inactive

>  <Compound Key>  (496) 
SID103904340

>  <Assay>  (496) 
CHEMBL1963742

>  <Assay Description>  (496) 
PUBCHEM_BIOASSAY: Navigating the Kinome. (Class of assay: other) Panel member name: JAK3

>  <BAO Format>  (496) 
assay format

>  <Target>  (496) 
CHEMBL2148

>  <Target Pref. Name>  (496) 
Tyrosine-protein kinase JAK3

>  <Target Organism>  (496) 
Homo sapiens

>  <Target Type>  (496) 
SINGLE PROTEIN

>  <Document>  (496) 
CHEMBL1201862

>  <Source>  (496) 
PubChem BioAssays

>  <Max Phase>  (496) 
3

>  <#Ro5 Violations>  (496) 
0

>  <Molecular Weight>  (496) 
375.41

>  <Ligand Efficiency BEI>  (496) 
nan

>  <Ligand Efficiency LE>  (496) 
nan

>  <Ligand Efficiency LLE>  (496) 
nan

>  <Ligand Efficiency SEI>  (496) 
nan

>  <ALogP>  (496) 
4.9

>  <Assay Organism>  (496) 
nan

>  <Assay Tissue ChEMBL ID>  (496) 
nan

>  <Assay Tissue Name>  (496) 
nan

>  <Assay Cell Type>  (496) 
nan

>  <Assay Subcellular Fraction>  (496) 
nan

>  <Organism Tax ID>  (496) 
9606

>  <BAO Format ID>  (496) 
BAO_0000019

>  <Published Type>  (496) 
nan

>  <Published Relation>  (496) 
nan

>  <Published Value>  (496) 
nan

>  <Published Units>  (496) 
nan

>  <Canonical Smiles>  (496) 
Cc1ccc(F)c(NC(=O)Nc2ccc(cc2)c3cccc4[nH]nc(N)c34)c1

>  <Data Validity Comment>  (496) 
nan

>  <Document Journal>  (496) 
nan

>  <Document Year>  (496) 
nan

>  <SRC ID>  (496) 
7

>  <UO Units>  (496) 
UO_0000065

>  <Potential Duplicate>  (496) 
False

>  <Class>  (496) 
0

$$$$

     RDKit          2D

 37 40  0  0  0  0  0  0  0  0999 V2000
   -3.7500    3.8971    0.0000 C   0  0  0  0  0  0  0  0  0  0  0  0
   -2.2500    3.8971    0.0000 N   0  0  0  0  0  0  0  0  0  0  0  0
   -1.5000    2.5981    0.0000 S   0  0  0  0  0  0  0  0  0  0  0  0
   -2.7990    1.8481    0.0000 O   0  0  0  0  0  0  0  0  0  0  0  0
   -0.2010    3.3481    0.0000 O   0  0  0  0  0  0  0  0  0  0  0  0
   -0.7500    1.2990    0.0000 C   0  0  0  0  0  0  0  0  0  0  0  0
   -1.5000   -0.0000    0.0000 C   0  0  0  0  0  0  0  0  0  0  0  0
   -0.7500   -1.2990    0.0000 C   0  0  0  0  0  0  0  0  0  0  0  0
    0.7500   -1.2990    0.0000 C   0  0  0  0  0  0  0  0  0  0  0  0
    1.5000   -0.0000    0.0000 C   0  0  0  0  0  0  0  0  0  0  0  0
    0.7500    1.2990    0.0000 C   0  0  0  0  0  0  0  0  0  0  0  0
    1.5000    2.5981    0.0000 N   0  0  0  0  0  0  0  0  0  0  0  0
    3.0000    2.5981    0.0000 C   0  0  0  0  0  0  0  0  0  0  0  0
    3.7500    1.2990    0.0000 N   0  0  0  0  0  0  0  0  0  0  0  0
    5.2500    1.2990    0.0000 C   0  0  0  0  0  0  0  0  0  0  0  0
    6.0000   -0.0000    0.0000 N   0  0  0  0  0  0  0  0  0  0  0  0
    7.5000   -0.0000    0.0000 C   0  0  0  0  0  0  0  0  0  0  0  0
    8.2500   -1.2990    0.0000 C   0  0  0  0  0  0  0  0  0  0  0  0
    9.7500   -1.2990    0.0000 C   0  0  0  0  0  0  0  0  0  0  0  0
   10.5000   -0.0000    0.0000 C   0  0  0  0  0  0  0  0  0  0  0  0
    9.7500    1.2990    0.0000 C   0  0  0  0  0  0  0  0  0  0  0  0
    8.2500    1.2990    0.0000 C   0  0  0  0  0  0  0  0  0  0  0  0
    7.5000    2.5981    0.0000 O   0  0  0  0  0  0  0  0  0  0  0  0
    8.2500    3.8971    0.0000 C   0  0  0  0  0  0  0  0  0  0  0  0
   10.5000   -2.5981    0.0000 N   0  0  0  0  0  0  0  0  0  0  0  0
    9.7500   -3.8971    0.0000 C   0  0  0  0  0  0  0  0  0  0  0  0
   10.5000   -5.1962    0.0000 C   0  0  0  0  0  0  0  0  0  0  0  0
   12.0000   -5.1962    0.0000 N   0  0  0  0  0  0  0  0  0  0  0  0
   12.7500   -3.8971    0.0000 C   0  0  0  0  0  0  0  0  0  0  0  0
   12.0000   -2.5981    0.0000 C   0  0  0  0  0  0  0  0  0  0  0  0
   12.7500   -6.4952    0.0000 C   0  0  0  0  0  0  0  0  0  0  0  0
   14.2500   -6.4952    0.0000 O   0  0  0  0  0  0  0  0  0  0  0  0
   12.0000   -7.7942    0.0000 C   0  0  0  0  0  0  0  0  0  0  0  0
    6.0000    2.5981    0.0000 N   0  0  0  0  0  0  0  0  0  0  0  0
    5.2500    3.8971    0.0000 C   0  0  0  0  0  0  0  0  0  0  0  0
    3.7500    3.8971    0.0000 C   0  0  0  0  0  0  0  0  0  0  0  0
    3.0000    5.1962    0.0000 Br  0  0  0  0  0  0  0  0  0  0  0  0
  1  2  1  0
  2  3  1  0
  3  4  2  0
  3  5  2  0
  3  6  1  0
  6  7  2  0
  7  8  1  0
  8  9  2  0
  9 10  1  0
 10 11  2  0
 11 12  1  0
 12 13  1  0
 13 14  2  0
 14 15  1  0
 15 16  1  0
 16 17  1  0
 17 18  2  0
 18 19  1  0
 19 20  2  0
 20 21  1  0
 21 22  2  0
 22 23  1  0
 23 24  1  0
 19 25  1  0
 25 26  1  0
 26 27  1  0
 27 28  1  0
 28 29  1  0
 29 30  1  0
 28 31  1  0
 31 32  2  0
 31 33  1  0
 15 34  2  0
 34 35  1  0
 35 36  2  0
 36 37  1  0
 11  6  1  0
 36 13  1  0
 22 17  1  0
 30 25  1  0
M  END
>  <Molecule>  (497) 
CHEMBL1971029

>  <Standard Type>  (497) 
Ki

>  <Standard Relation>  (497) 
=

>  <Standard Value>  (497) 
12.59

>  <Standard Units>  (497) 
nM

>  <pChEMBL Value>  (497) 
7.9

>  <Comment>  (497) 
active

>  <Compound Key>  (497) 
SID103904602

>  <Assay>  (497) 
CHEMBL1963742

>  <Assay Description>  (497) 
PUBCHEM_BIOASSAY: Navigating the Kinome. (Class of assay: other) Panel member name: JAK3

>  <BAO Format>  (497) 
assay format

>  <Target>  (497) 
CHEMBL2148

>  <Target Pref. Name>  (497) 
Tyrosine-protein kinase JAK3

>  <Target Organism>  (497) 
Homo sapiens

>  <Target Type>  (497) 
SINGLE PROTEIN

>  <Document>  (497) 
CHEMBL1201862

>  <Source>  (497) 
PubChem BioAssays

>  <Max Phase>  (497) 
0

>  <#Ro5 Violations>  (497) 
1

>  <Molecular Weight>  (497) 
590.5

>  <Ligand Efficiency BEI>  (497) 
nan

>  <Ligand Efficiency LE>  (497) 
nan

>  <Ligand Efficiency LLE>  (497) 
nan

>  <Ligand Efficiency SEI>  (497) 
nan

>  <ALogP>  (497) 
3.31

>  <Assay Organism>  (497) 
nan

>  <Assay Tissue ChEMBL ID>  (497) 
nan

>  <Assay Tissue Name>  (497) 
nan

>  <Assay Cell Type>  (497) 
nan

>  <Assay Subcellular Fraction>  (497) 
nan

>  <Organism Tax ID>  (497) 
9606

>  <BAO Format ID>  (497) 
BAO_0000019

>  <Published Type>  (497) 
nan

>  <Published Relation>  (497) 
nan

>  <Published Value>  (497) 
nan

>  <Published Units>  (497) 
nan

>  <Canonical Smiles>  (497) 
CNS(=O)(=O)c1ccccc1Nc2nc(Nc3cc(ccc3OC)N4CCN(CC4)C(=O)C)ncc2Br

>  <Data Validity Comment>  (497) 
nan

>  <Document Journal>  (497) 
nan

>  <Document Year>  (497) 
nan

>  <SRC ID>  (497) 
7

>  <UO Units>  (497) 
UO_0000065

>  <Potential Duplicate>  (497) 
False

>  <Class>  (497) 
1

$$$$

     RDKit          2D

 29 33  0  0  0  0  0  0  0  0999 V2000
   -2.6401   -3.1891    0.0000 N   0  0  0  0  0  0  0  0  0  0  0  0
   -1.2135   -2.7256    0.0000 C   0  0  0  0  0  0  0  0  0  0  0  0
   -0.0000   -3.6073    0.0000 N   0  0  0  0  0  0  0  0  0  0  0  0
    1.2135   -2.7256    0.0000 N   0  0  0  0  0  0  0  0  0  0  0  0
    0.7500   -1.2990    0.0000 C   0  0  0  0  0  0  0  0  0  0  0  0
    1.5000    0.0000    0.0000 C   0  0  0  0  0  0  0  0  0  0  0  0
    0.7500    1.2990    0.0000 C   0  0  0  0  0  0  0  0  0  0  0  0
   -0.7500    1.2990    0.0000 C   0  0  0  0  0  0  0  0  0  0  0  0
   -1.5000    0.0000    0.0000 C   0  0  0  0  0  0  0  0  0  0  0  0
   -0.7500   -1.2990    0.0000 C   0  0  0  0  0  0  0  0  0  0  0  0
   -1.5000    2.5981    0.0000 C   0  0  0  0  0  0  0  0  0  0  0  0
   -2.9918    2.7549    0.0000 N   0  0  0  0  0  0  0  0  0  0  0  0
   -3.3037    4.2221    0.0000 N   0  0  0  0  0  0  0  0  0  0  0  0
   -2.0046    4.9721    0.0000 N   0  0  0  0  0  0  0  0  0  0  0  0
   -1.8478    6.4639    0.0000 C   0  0  0  0  0  0  0  0  0  0  0  0
   -3.0613    7.3456    0.0000 C   0  0  0  0  0  0  0  0  0  0  0  0
   -4.4317    6.7354    0.0000 C   0  0  0  0  0  0  0  0  0  0  0  0
   -5.6452    7.6171    0.0000 C   0  0  0  0  0  0  0  0  0  0  0  0
   -5.4884    9.1089    0.0000 C   0  0  0  0  0  0  0  0  0  0  0  0
   -4.1181    9.7190    0.0000 C   0  0  0  0  0  0  0  0  0  0  0  0
   -2.9046    8.8373    0.0000 C   0  0  0  0  0  0  0  0  0  0  0  0
   -0.8899    3.9684    0.0000 C   0  0  0  0  0  0  0  0  0  0  0  0
    0.5773    4.2803    0.0000 C   0  0  0  0  0  0  0  0  0  0  0  0
    1.5810    3.1655    0.0000 C   0  0  0  0  0  0  0  0  0  0  0  0
    3.0482    3.4774    0.0000 C   0  0  0  0  0  0  0  0  0  0  0  0
    3.5118    4.9040    0.0000 C   0  0  0  0  0  0  0  0  0  0  0  0
    4.9790    5.2159    0.0000 F   0  0  0  0  0  0  0  0  0  0  0  0
    2.5081    6.0187    0.0000 C   0  0  0  0  0  0  0  0  0  0  0  0
    1.0409    5.7068    0.0000 C   0  0  0  0  0  0  0  0  0  0  0  0
  1  2  1  0
  2  3  2  0
  3  4  1  0
  4  5  1  0
  5  6  2  0
  6  7  1  0
  7  8  2  0
  8  9  1  0
  9 10  2  0
  8 11  1  0
 11 12  1  0
 12 13  2  0
 13 14  1  0
 14 15  1  0
 15 16  1  0
 16 17  2  0
 17 18  1  0
 18 19  2  0
 19 20  1  0
 20 21  2  0
 14 22  1  0
 22 23  1  0
 23 24  2  0
 24 25  1  0
 25 26  2  0
 26 27  1  0
 26 28  1  0
 28 29  2  0
 10  2  1  0
 10  5  1  0
 22 11  2  0
 21 16  1  0
 29 23  1  0
M  END
>  <Molecule>  (498) 
CHEMBL1986499

>  <Standard Type>  (498) 
Ki

>  <Standard Relation>  (498) 
=

>  <Standard Value>  (498) 
316.23

>  <Standard Units>  (498) 
nM

>  <pChEMBL Value>  (498) 
6.5

>  <Comment>  (498) 
active

>  <Compound Key>  (498) 
SID103904466

>  <Assay>  (498) 
CHEMBL1963742

>  <Assay Description>  (498) 
PUBCHEM_BIOASSAY: Navigating the Kinome. (Class of assay: other) Panel member name: JAK3

>  <BAO Format>  (498) 
assay format

>  <Target>  (498) 
CHEMBL2148

>  <Target Pref. Name>  (498) 
Tyrosine-protein kinase JAK3

>  <Target Organism>  (498) 
Homo sapiens

>  <Target Type>  (498) 
SINGLE PROTEIN

>  <Document>  (498) 
CHEMBL1201862

>  <Source>  (498) 
PubChem BioAssays

>  <Max Phase>  (498) 
0

>  <#Ro5 Violations>  (498) 
0

>  <Molecular Weight>  (498) 
384.42

>  <Ligand Efficiency BEI>  (498) 
nan

>  <Ligand Efficiency LE>  (498) 
nan

>  <Ligand Efficiency LLE>  (498) 
nan

>  <Ligand Efficiency SEI>  (498) 
nan

>  <ALogP>  (498) 
4.26

>  <Assay Organism>  (498) 
nan

>  <Assay Tissue ChEMBL ID>  (498) 
nan

>  <Assay Tissue Name>  (498) 
nan

>  <Assay Cell Type>  (498) 
nan

>  <Assay Subcellular Fraction>  (498) 
nan

>  <Organism Tax ID>  (498) 
9606

>  <BAO Format ID>  (498) 
BAO_0000019

>  <Published Type>  (498) 
nan

>  <Published Relation>  (498) 
nan

>  <Published Value>  (498) 
nan

>  <Published Units>  (498) 
nan

>  <Canonical Smiles>  (498) 
Nc1n[nH]c2ccc(cc12)c3nnn(Cc4ccccc4)c3c5ccc(F)cc5

>  <Data Validity Comment>  (498) 
nan

>  <Document Journal>  (498) 
nan

>  <Document Year>  (498) 
nan

>  <SRC ID>  (498) 
7

>  <UO Units>  (498) 
UO_0000065

>  <Potential Duplicate>  (498) 
False

>  <Class>  (498) 
1

$$$$

     RDKit          2D

 32 36  0  0  0  0  0  0  0  0999 V2000
   -3.5736    1.2902    0.0000 N   0  0  0  0  0  0  0  0  0  0  0  0
   -2.1470    1.7537    0.0000 C   0  0  0  0  0  0  0  0  0  0  0  0
   -1.8351    3.2209    0.0000 N   0  0  0  0  0  0  0  0  0  0  0  0
   -0.4086    3.6844    0.0000 C   0  0  0  0  0  0  0  0  0  0  0  0
    0.7062    2.6807    0.0000 C   0  0  0  0  0  0  0  0  0  0  0  0
    2.1328    3.1443    0.0000 C   0  0  0  0  0  0  0  0  0  0  0  0
    2.5963    4.5709    0.0000 C   0  0  0  0  0  0  0  0  0  0  0  0
    4.0963    4.5709    0.0000 O   0  0  0  0  0  0  0  0  0  0  0  0
    4.5598    3.1443    0.0000 C   0  0  0  0  0  0  0  0  0  0  0  0
    3.3463    2.2626    0.0000 C   0  0  0  0  0  0  0  0  0  0  0  0
    0.3943    1.2135    0.0000 C   0  0  0  0  0  0  0  0  0  0  0  0
    1.2760    0.0000    0.0000 S   0  0  0  0  0  0  0  0  0  0  0  0
    0.3943   -1.2135    0.0000 C   0  0  0  0  0  0  0  0  0  0  0  0
   -1.0323   -0.7500    0.0000 C   0  0  0  0  0  0  0  0  0  0  0  0
   -2.2458   -1.6317    0.0000 C   0  0  0  0  0  0  0  0  0  0  0  0
   -3.6161   -1.0216    0.0000 C   0  0  0  0  0  0  0  0  0  0  0  0
   -4.8297   -1.9033    0.0000 C   0  0  0  0  0  0  0  0  0  0  0  0
   -4.6729   -3.3950    0.0000 C   0  0  0  0  0  0  0  0  0  0  0  0
   -5.8864   -4.2767    0.0000 N   0  0  0  0  0  0  0  0  0  0  0  0
   -7.2567   -3.6666    0.0000 C   0  0  0  0  0  0  0  0  0  0  0  0
   -7.4135   -2.1748    0.0000 O   0  0  0  0  0  0  0  0  0  0  0  0
   -8.4702   -4.5483    0.0000 N   0  0  0  0  0  0  0  0  0  0  0  0
   -9.8406   -3.9382    0.0000 C   0  0  0  0  0  0  0  0  0  0  0  0
   -9.9973   -2.4464    0.0000 C   0  0  0  0  0  0  0  0  0  0  0  0
  -11.3677   -1.8363    0.0000 C   0  0  0  0  0  0  0  0  0  0  0  0
  -12.5812   -2.7180    0.0000 C   0  0  0  0  0  0  0  0  0  0  0  0
  -12.4244   -4.2098    0.0000 C   0  0  0  0  0  0  0  0  0  0  0  0
  -13.6379   -5.0914    0.0000 F   0  0  0  0  0  0  0  0  0  0  0  0
  -11.0541   -4.8199    0.0000 C   0  0  0  0  0  0  0  0  0  0  0  0
   -3.3025   -4.0051    0.0000 C   0  0  0  0  0  0  0  0  0  0  0  0
   -2.0890   -3.1235    0.0000 C   0  0  0  0  0  0  0  0  0  0  0  0
   -1.0323    0.7500    0.0000 C   0  0  0  0  0  0  0  0  0  0  0  0
  1  2  1  0
  2  3  2  0
  3  4  1  0
  4  5  2  0
  5  6  1  0
  6  7  2  0
  7  8  1  0
  8  9  1  0
  9 10  2  0
  5 11  1  0
 11 12  1  0
 12 13  1  0
 13 14  2  0
 14 15  1  0
 15 16  2  0
 16 17  1  0
 17 18  2  0
 18 19  1  0
 19 20  1  0
 20 21  2  0
 20 22  1  0
 22 23  1  0
 23 24  2  0
 24 25  1  0
 25 26  2  0
 26 27  1  0
 27 28  1  0
 27 29  2  0
 18 30  1  0
 30 31  2  0
 14 32  1  0
 32  2  1  0
 10  6  1  0
 32 11  2  0
 31 15  1  0
 29 23  1  0
M  END
>  <Molecule>  (499) 
CHEMBL1966514

>  <Standard Type>  (499) 
Ki

>  <Standard Relation>  (499) 
=

>  <Standard Value>  (499) 
630.96

>  <Standard Units>  (499) 
nM

>  <pChEMBL Value>  (499) 
6.2

>  <Comment>  (499) 
active

>  <Compound Key>  (499) 
SID103904285

>  <Assay>  (499) 
CHEMBL1963742

>  <Assay Description>  (499) 
PUBCHEM_BIOASSAY: Navigating the Kinome. (Class of assay: other) Panel member name: JAK3

>  <BAO Format>  (499) 
assay format

>  <Target>  (499) 
CHEMBL2148

>  <Target Pref. Name>  (499) 
Tyrosine-protein kinase JAK3

>  <Target Organism>  (499) 
Homo sapiens

>  <Target Type>  (499) 
SINGLE PROTEIN

>  <Document>  (499) 
CHEMBL1201862

>  <Source>  (499) 
PubChem BioAssays

>  <Max Phase>  (499) 
0

>  <#Ro5 Violations>  (499) 
1

>  <Molecular Weight>  (499) 
444.49

>  <Ligand Efficiency BEI>  (499) 
nan

>  <Ligand Efficiency LE>  (499) 
nan

>  <Ligand Efficiency LLE>  (499) 
nan

>  <Ligand Efficiency SEI>  (499) 
nan

>  <ALogP>  (499) 
6.59

>  <Assay Organism>  (499) 
nan

>  <Assay Tissue ChEMBL ID>  (499) 
nan

>  <Assay Tissue Name>  (499) 
nan

>  <Assay Cell Type>  (499) 
nan

>  <Assay Subcellular Fraction>  (499) 
nan

>  <Organism Tax ID>  (499) 
9606

>  <BAO Format ID>  (499) 
BAO_0000019

>  <Published Type>  (499) 
nan

>  <Published Relation>  (499) 
nan

>  <Published Value>  (499) 
nan

>  <Published Units>  (499) 
nan

>  <Canonical Smiles>  (499) 
Nc1ncc(c2cocc2)c3scc(c4ccc(NC(=O)Nc5cccc(F)c5)cc4)c13

>  <Data Validity Comment>  (499) 
nan

>  <Document Journal>  (499) 
nan

>  <Document Year>  (499) 
nan

>  <SRC ID>  (499) 
7

>  <UO Units>  (499) 
UO_0000065

>  <Potential Duplicate>  (499) 
False

>  <Class>  (499) 
1

$$$$

     RDKit          2D

 27 27  0  0  0  0  0  0  0  0999 V2000
   16.5000   -7.7942    0.0000 C   0  0  0  0  0  0  0  0  0  0  0  0
   15.0000   -7.7942    0.0000 C   0  0  0  0  0  0  0  0  0  0  0  0
   14.2500   -6.4952    0.0000 C   0  0  0  0  0  0  0  0  0  0  0  0
   12.7500   -6.4952    0.0000 C   0  0  0  0  0  0  0  0  0  0  0  0
   12.0000   -5.1962    0.0000 C   0  0  0  0  0  0  0  0  0  0  0  0
   10.5000   -5.1962    0.0000 C   0  0  0  0  0  0  0  0  0  0  0  0
    9.7500   -3.8971    0.0000 C   0  0  0  0  0  0  0  0  0  0  0  0
    8.2500   -3.8971    0.0000 C   0  0  0  0  0  0  0  0  0  0  0  0
    7.5000   -2.5981    0.0000 C   0  0  0  0  0  0  0  0  0  0  0  0
    6.0000   -2.5981    0.0000 C   0  0  0  0  0  0  0  0  0  0  0  0
    5.2500   -1.2990    0.0000 C   0  0  0  0  0  0  0  0  0  0  0  0
    3.7500   -1.2990    0.0000 C   0  0  0  0  0  0  0  0  0  0  0  0
    3.0000    0.0000    0.0000 O   0  0  0  0  0  0  0  0  0  0  0  0
    1.5000    0.0000    0.0000 C   0  0  0  0  0  0  0  0  0  0  0  0
    0.7500   -1.2990    0.0000 C   0  0  0  0  0  0  0  0  0  0  0  0
   -0.7500   -1.2990    0.0000 C   0  0  0  0  0  0  0  0  0  0  0  0
   -1.5000    0.0000    0.0000 C   0  0  0  0  0  0  0  0  0  0  0  0
   -3.0000    0.0000    0.0000 N   0  0  0  0  0  0  0  0  0  0  0  0
   -3.7500    1.2990    0.0000 C   0  0  0  0  0  0  0  0  0  0  0  0
   -3.0000    2.5981    0.0000 N   0  0  0  0  0  0  0  0  0  0  0  0
   -5.2500    1.2990    0.0000 N   0  0  0  0  0  0  0  0  0  0  0  0
   -0.7500    1.2990    0.0000 C   0  0  0  0  0  0  0  0  0  0  0  0
    0.7500    1.2990    0.0000 C   0  0  0  0  0  0  0  0  0  0  0  0
    1.5000    2.5981    0.0000 N   0  0  0  0  0  0  0  0  0  0  0  0
    3.0000    2.5981    0.0000 C   0  0  0  0  0  0  0  0  0  0  0  0
    3.7500    1.2990    0.0000 N   0  0  0  0  0  0  0  0  0  0  0  0
    3.7500    3.8971    0.0000 N   0  0  0  0  0  0  0  0  0  0  0  0
  1  2  1  0
  2  3  1  0
  3  4  1  0
  4  5  1  0
  5  6  1  0
  6  7  1  0
  7  8  1  0
  8  9  1  0
  9 10  1  0
 10 11  1  0
 11 12  1  0
 12 13  1  0
 13 14  1  0
 14 15  2  0
 15 16  1  0
 16 17  2  0
 17 18  1  0
 18 19  1  0
 19 20  2  0
 19 21  1  0
 17 22  1  0
 22 23  2  0
 23 24  1  0
 24 25  1  0
 25 26  2  0
 25 27  1  0
 23 14  1  0
M  END
>  <Molecule>  (500) 
CHEMBL1980715

>  <Standard Type>  (500) 
Ki

>  <Standard Relation>  (500) 
=

>  <Standard Value>  (500) 
794.33

>  <Standard Units>  (500) 
nM

>  <pChEMBL Value>  (500) 
6.1

>  <Comment>  (500) 
active

>  <Compound Key>  (500) 
SID103905683

>  <Assay>  (500) 
CHEMBL1963742

>  <Assay Description>  (500) 
PUBCHEM_BIOASSAY: Navigating the Kinome. (Class of assay: other) Panel member name: JAK3

>  <BAO Format>  (500) 
assay format

>  <Target>  (500) 
CHEMBL2148

>  <Target Pref. Name>  (500) 
Tyrosine-protein kinase JAK3

>  <Target Organism>  (500) 
Homo sapiens

>  <Target Type>  (500) 
SINGLE PROTEIN

>  <Document>  (500) 
CHEMBL1201862

>  <Source>  (500) 
PubChem BioAssays

>  <Max Phase>  (500) 
0

>  <#Ro5 Violations>  (500) 
1

>  <Molecular Weight>  (500) 
376.55

>  <Ligand Efficiency BEI>  (500) 
nan

>  <Ligand Efficiency LE>  (500) 
nan

>  <Ligand Efficiency LLE>  (500) 
nan

>  <Ligand Efficiency SEI>  (500) 
nan

>  <ALogP>  (500) 
4.6

>  <Assay Organism>  (500) 
nan

>  <Assay Tissue ChEMBL ID>  (500) 
nan

>  <Assay Tissue Name>  (500) 
nan

>  <Assay Cell Type>  (500) 
nan

>  <Assay Subcellular Fraction>  (500) 
nan

>  <Organism Tax ID>  (500) 
9606

>  <BAO Format ID>  (500) 
BAO_0000019

>  <Published Type>  (500) 
nan

>  <Published Relation>  (500) 
nan

>  <Published Value>  (500) 
nan

>  <Published Units>  (500) 
nan

>  <Canonical Smiles>  (500) 
CCCCCCCCCCCCOc1ccc(NC(=N)N)cc1NC(=N)N

>  <Data Validity Comment>  (500) 
nan

>  <Document Journal>  (500) 
nan

>  <Document Year>  (500) 
nan

>  <SRC ID>  (500) 
7

>  <UO Units>  (500) 
UO_0000065

>  <Potential Duplicate>  (500) 
False

>  <Class>  (500) 
1

$$$$

     RDKit          2D

 27 29  0  0  0  0  0  0  0  0999 V2000
   -8.3202   -4.4017    0.0000 C   0  0  0  0  0  0  0  0  0  0  0  0
   -7.0211   -5.1517    0.0000 C   0  0  0  0  0  0  0  0  0  0  0  0
   -5.7221   -4.4017    0.0000 O   0  0  0  0  0  0  0  0  0  0  0  0
   -4.4231   -5.1517    0.0000 C   0  0  0  0  0  0  0  0  0  0  0  0
   -4.4231   -6.6517    0.0000 O   0  0  0  0  0  0  0  0  0  0  0  0
   -3.1240   -4.4017    0.0000 C   0  0  0  0  0  0  0  0  0  0  0  0
   -1.7537   -5.0118    0.0000 N   0  0  0  0  0  0  0  0  0  0  0  0
   -0.7500   -3.8971    0.0000 C   0  0  0  0  0  0  0  0  0  0  0  0
    0.7500   -3.8971    0.0000 C   0  0  0  0  0  0  0  0  0  0  0  0
    1.5000   -5.1962    0.0000 O   0  0  0  0  0  0  0  0  0  0  0  0
    1.5000   -2.5981    0.0000 N   0  0  0  0  0  0  0  0  0  0  0  0
    0.7500   -1.2990    0.0000 C   0  0  0  0  0  0  0  0  0  0  0  0
    1.5000    0.0000    0.0000 C   0  0  0  0  0  0  0  0  0  0  0  0
    0.7500    1.2990    0.0000 C   0  0  0  0  0  0  0  0  0  0  0  0
   -0.7500    1.2990    0.0000 C   0  0  0  0  0  0  0  0  0  0  0  0
   -1.5000    2.5981    0.0000 N   0  0  0  0  0  0  0  0  0  0  0  0
   -3.0000    2.5981    0.0000 C   0  0  0  0  0  0  0  0  0  0  0  0
   -3.7500    1.2990    0.0000 O   0  0  0  0  0  0  0  0  0  0  0  0
   -3.7500    3.8971    0.0000 C   0  0  0  0  0  0  0  0  0  0  0  0
   -1.5000    0.0000    0.0000 C   0  0  0  0  0  0  0  0  0  0  0  0
   -0.7500   -1.2990    0.0000 C   0  0  0  0  0  0  0  0  0  0  0  0
   -1.5000   -2.5981    0.0000 N   0  0  0  0  0  0  0  0  0  0  0  0
   -2.9672   -2.9099    0.0000 C   0  0  0  0  0  0  0  0  0  0  0  0
   -4.0819   -1.9062    0.0000 C   0  0  0  0  0  0  0  0  0  0  0  0
    1.5000    2.5981    0.0000 N   0  0  0  0  0  0  0  0  0  0  0  0
    0.7500    3.8971    0.0000 O   0  0  0  0  0  0  0  0  0  0  0  0
    3.0000    2.5981    0.0000 O   0  0  0  0  0  0  0  0  0  0  0  0
  1  2  1  0
  2  3  1  0
  3  4  1  0
  4  5  2  0
  4  6  1  0
  6  7  1  0
  7  8  2  0
  8  9  1  0
  9 10  2  0
  9 11  1  0
 11 12  1  0
 12 13  2  0
 13 14  1  0
 14 15  2  0
 15 16  1  0
 16 17  1  0
 17 18  2  0
 17 19  1  0
 15 20  1  0
 20 21  2  0
 21 22  1  0
 22 23  1  0
 23 24  1  0
 14 25  1  0
 25 26  2  0
 25 27  1  0
 23  6  2  0
 22  8  1  0
 21 12  1  0
M  CHG  2  25   1  27  -1
M  END
>  <Molecule>  (501) 
CHEMBL1997611

>  <Standard Type>  (501) 
Ki

>  <Standard Relation>  (501) 
>

>  <Standard Value>  (501) 
5011.87

>  <Standard Units>  (501) 
nM

>  <pChEMBL Value>  (501) 
nan

>  <Comment>  (501) 
inactive

>  <Compound Key>  (501) 
SID103905664

>  <Assay>  (501) 
CHEMBL1963742

>  <Assay Description>  (501) 
PUBCHEM_BIOASSAY: Navigating the Kinome. (Class of assay: other) Panel member name: JAK3

>  <BAO Format>  (501) 
assay format

>  <Target>  (501) 
CHEMBL2148

>  <Target Pref. Name>  (501) 
Tyrosine-protein kinase JAK3

>  <Target Organism>  (501) 
Homo sapiens

>  <Target Type>  (501) 
SINGLE PROTEIN

>  <Document>  (501) 
CHEMBL1201862

>  <Source>  (501) 
PubChem BioAssays

>  <Max Phase>  (501) 
0

>  <#Ro5 Violations>  (501) 
0

>  <Molecular Weight>  (501) 
373.33

>  <Ligand Efficiency BEI>  (501) 
nan

>  <Ligand Efficiency LE>  (501) 
nan

>  <Ligand Efficiency LLE>  (501) 
nan

>  <Ligand Efficiency SEI>  (501) 
nan

>  <ALogP>  (501) 
1.53

>  <Assay Organism>  (501) 
nan

>  <Assay Tissue ChEMBL ID>  (501) 
nan

>  <Assay Tissue Name>  (501) 
nan

>  <Assay Cell Type>  (501) 
nan

>  <Assay Subcellular Fraction>  (501) 
nan

>  <Organism Tax ID>  (501) 
9606

>  <BAO Format ID>  (501) 
BAO_0000019

>  <Published Type>  (501) 
nan

>  <Published Relation>  (501) 
nan

>  <Published Value>  (501) 
nan

>  <Published Units>  (501) 
nan

>  <Canonical Smiles>  (501) 
CCOC(=O)c1nc2C(=O)Nc3cc(c(NC(=O)C)cc3n2c1C)[N+](=O)[O-]

>  <Data Validity Comment>  (501) 
nan

>  <Document Journal>  (501) 
nan

>  <Document Year>  (501) 
nan

>  <SRC ID>  (501) 
7

>  <UO Units>  (501) 
UO_0000065

>  <Potential Duplicate>  (501) 
False

>  <Class>  (501) 
0

$$$$

     RDKit          2D

 36 40  0  0  0  0  0  0  0  0999 V2000
  -12.7500   -9.0933    0.0000 C   0  0  0  0  0  0  0  0  0  0  0  0
  -12.0000   -7.7942    0.0000 N   0  0  0  0  0  0  0  0  0  0  0  0
  -12.7500   -6.4952    0.0000 C   0  0  0  0  0  0  0  0  0  0  0  0
  -10.5000   -7.7942    0.0000 C   0  0  0  0  0  0  0  0  0  0  0  0
   -9.7500   -6.4952    0.0000 C   0  0  0  0  0  0  0  0  0  0  0  0
  -10.5000   -5.1962    0.0000 O   0  0  0  0  0  0  0  0  0  0  0  0
   -8.2500   -6.4952    0.0000 N   0  0  0  0  0  0  0  0  0  0  0  0
   -7.5000   -5.1962    0.0000 C   0  0  0  0  0  0  0  0  0  0  0  0
   -6.0000   -5.1962    0.0000 C   0  0  0  0  0  0  0  0  0  0  0  0
   -5.2500   -6.4952    0.0000 O   0  0  0  0  0  0  0  0  0  0  0  0
   -3.7500   -6.4952    0.0000 C   0  0  0  0  0  0  0  0  0  0  0  0
   -3.0000   -7.7942    0.0000 C   0  0  0  0  0  0  0  0  0  0  0  0
   -1.5000   -7.7942    0.0000 N   0  0  0  0  0  0  0  0  0  0  0  0
   -0.7500   -6.4952    0.0000 C   0  0  0  0  0  0  0  0  0  0  0  0
   -1.5000   -5.1962    0.0000 C   0  0  0  0  0  0  0  0  0  0  0  0
   -3.0000   -5.1962    0.0000 C   0  0  0  0  0  0  0  0  0  0  0  0
   -0.7500   -3.8971    0.0000 C   0  0  0  0  0  0  0  0  0  0  0  0
    0.7500   -3.8971    0.0000 C   0  0  0  0  0  0  0  0  0  0  0  0
    1.5000   -2.5981    0.0000 C   0  0  0  0  0  0  0  0  0  0  0  0
    0.7500   -1.2990    0.0000 C   0  0  0  0  0  0  0  0  0  0  0  0
    1.5000    0.0000    0.0000 C   0  0  0  0  0  0  0  0  0  0  0  0
    0.7500    1.2990    0.0000 N   0  0  0  0  0  0  0  0  0  0  0  0
   -0.7500    1.2990    0.0000 C   0  0  0  0  0  0  0  0  0  0  0  0
   -1.5000    0.0000    0.0000 C   0  0  0  0  0  0  0  0  0  0  0  0
   -0.7500   -1.2990    0.0000 C   0  0  0  0  0  0  0  0  0  0  0  0
   -1.5000   -2.5981    0.0000 C   0  0  0  0  0  0  0  0  0  0  0  0
   -8.2500   -3.8971    0.0000 C   0  0  0  0  0  0  0  0  0  0  0  0
   -7.5000   -2.5981    0.0000 C   0  0  0  0  0  0  0  0  0  0  0  0
   -6.0082   -2.4413    0.0000 C   0  0  0  0  0  0  0  0  0  0  0  0
   -5.6963   -0.9741    0.0000 N   0  0  0  0  0  0  0  0  0  0  0  0
   -6.9954   -0.2241    0.0000 C   0  0  0  0  0  0  0  0  0  0  0  0
   -7.3073    1.2432    0.0000 C   0  0  0  0  0  0  0  0  0  0  0  0
   -8.7338    1.7067    0.0000 C   0  0  0  0  0  0  0  0  0  0  0  0
   -9.8486    0.7030    0.0000 C   0  0  0  0  0  0  0  0  0  0  0  0
   -9.5367   -0.7642    0.0000 C   0  0  0  0  0  0  0  0  0  0  0  0
   -8.1101   -1.2278    0.0000 C   0  0  0  0  0  0  0  0  0  0  0  0
  1  2  1  0
  2  3  1  0
  2  4  1  0
  4  5  1  0
  5  6  2  0
  5  7  1  0
  7  8  1  0
  8  9  1  0
  9 10  1  0
 10 11  1  0
 11 12  2  0
 12 13  1  0
 13 14  2  0
 14 15  1  0
 15 16  2  0
 15 17  1  0
 17 18  2  0
 18 19  1  0
 19 20  2  0
 20 21  1  0
 21 22  2  0
 22 23  1  0
 23 24  2  0
 24 25  1  0
 25 26  2  0
  8 27  1  0
 27 28  1  0
 28 29  2  0
 29 30  1  0
 30 31  1  0
 31 32  2  0
 32 33  1  0
 33 34  2  0
 34 35  1  0
 35 36  2  0
 16 11  1  0
 26 17  1  0
 25 20  1  0
 36 28  1  0
 36 31  1  0
M  END
>  <Molecule>  (502) 
CHEMBL1991725

>  <Standard Type>  (502) 
Ki

>  <Standard Relation>  (502) 
>

>  <Standard Value>  (502) 
1584.89

>  <Standard Units>  (502) 
nM

>  <pChEMBL Value>  (502) 
nan

>  <Comment>  (502) 
inactive

>  <Compound Key>  (502) 
SID103904474

>  <Assay>  (502) 
CHEMBL1963742

>  <Assay Description>  (502) 
PUBCHEM_BIOASSAY: Navigating the Kinome. (Class of assay: other) Panel member name: JAK3

>  <BAO Format>  (502) 
assay format

>  <Target>  (502) 
CHEMBL2148

>  <Target Pref. Name>  (502) 
Tyrosine-protein kinase JAK3

>  <Target Organism>  (502) 
Homo sapiens

>  <Target Type>  (502) 
SINGLE PROTEIN

>  <Document>  (502) 
CHEMBL1201862

>  <Source>  (502) 
PubChem BioAssays

>  <Max Phase>  (502) 
0

>  <#Ro5 Violations>  (502) 
0

>  <Molecular Weight>  (502) 
479.58

>  <Ligand Efficiency BEI>  (502) 
nan

>  <Ligand Efficiency LE>  (502) 
nan

>  <Ligand Efficiency LLE>  (502) 
nan

>  <Ligand Efficiency SEI>  (502) 
nan

>  <ALogP>  (502) 
4.45

>  <Assay Organism>  (502) 
nan

>  <Assay Tissue ChEMBL ID>  (502) 
nan

>  <Assay Tissue Name>  (502) 
nan

>  <Assay Cell Type>  (502) 
nan

>  <Assay Subcellular Fraction>  (502) 
nan

>  <Organism Tax ID>  (502) 
9606

>  <BAO Format ID>  (502) 
BAO_0000019

>  <Published Type>  (502) 
nan

>  <Published Relation>  (502) 
nan

>  <Published Value>  (502) 
nan

>  <Published Units>  (502) 
nan

>  <Canonical Smiles>  (502) 
CN(C)CC(=O)NC(COc1cncc(c1)c2ccc3cnccc3c2)Cc4c[nH]c5ccccc45

>  <Data Validity Comment>  (502) 
nan

>  <Document Journal>  (502) 
nan

>  <Document Year>  (502) 
nan

>  <SRC ID>  (502) 
7

>  <UO Units>  (502) 
UO_0000065

>  <Potential Duplicate>  (502) 
False

>  <Class>  (502) 
0

$$$$

     RDKit          2D

 29 32  0  0  0  0  0  0  0  0999 V2000
   -4.9617   -8.8297    0.0000 C   0  0  0  0  0  0  0  0  0  0  0  0
   -6.4289   -8.5179    0.0000 C   0  0  0  0  0  0  0  0  0  0  0  0
   -7.8961   -8.2060    0.0000 C   0  0  0  0  0  0  0  0  0  0  0  0
   -6.7407   -9.9851    0.0000 C   0  0  0  0  0  0  0  0  0  0  0  0
   -5.6260  -10.9888    0.0000 O   0  0  0  0  0  0  0  0  0  0  0  0
   -6.1170   -7.0506    0.0000 C   0  0  0  0  0  0  0  0  0  0  0  0
   -4.6904   -6.5871    0.0000 N   0  0  0  0  0  0  0  0  0  0  0  0
   -4.3786   -5.1199    0.0000 C   0  0  0  0  0  0  0  0  0  0  0  0
   -5.4933   -4.1162    0.0000 N   0  0  0  0  0  0  0  0  0  0  0  0
   -5.1814   -2.6490    0.0000 C   0  0  0  0  0  0  0  0  0  0  0  0
   -3.7548   -2.1855    0.0000 C   0  0  0  0  0  0  0  0  0  0  0  0
   -2.6401   -3.1891    0.0000 C   0  0  0  0  0  0  0  0  0  0  0  0
   -2.9520   -4.6564    0.0000 N   0  0  0  0  0  0  0  0  0  0  0  0
   -1.2135   -2.7256    0.0000 C   0  0  0  0  0  0  0  0  0  0  0  0
   -0.0000   -3.6073    0.0000 C   0  0  0  0  0  0  0  0  0  0  0  0
    1.2135   -2.7256    0.0000 N   0  0  0  0  0  0  0  0  0  0  0  0
    0.7500   -1.2990    0.0000 C   0  0  0  0  0  0  0  0  0  0  0  0
    1.5000    0.0000    0.0000 C   0  0  0  0  0  0  0  0  0  0  0  0
    0.7500    1.2990    0.0000 N   0  0  0  0  0  0  0  0  0  0  0  0
   -0.7500    1.2990    0.0000 C   0  0  0  0  0  0  0  0  0  0  0  0
   -1.5000    0.0000    0.0000 C   0  0  0  0  0  0  0  0  0  0  0  0
   -0.7500   -1.2990    0.0000 N   0  0  0  0  0  0  0  0  0  0  0  0
   -0.0000   -5.1073    0.0000 C   0  0  0  0  0  0  0  0  0  0  0  0
   -1.2990   -5.8573    0.0000 C   0  0  0  0  0  0  0  0  0  0  0  0
   -1.2990   -7.3573    0.0000 C   0  0  0  0  0  0  0  0  0  0  0  0
   -0.0000   -8.1073    0.0000 C   0  0  0  0  0  0  0  0  0  0  0  0
    0.0000   -9.6073    0.0000 F   0  0  0  0  0  0  0  0  0  0  0  0
    1.2990   -7.3573    0.0000 C   0  0  0  0  0  0  0  0  0  0  0  0
    1.2990   -5.8573    0.0000 C   0  0  0  0  0  0  0  0  0  0  0  0
  1  2  1  0
  2  3  1  0
  2  4  1  0
  4  5  1  0
  2  6  1  0
  6  7  1  0
  7  8  1  0
  8  9  2  0
  9 10  1  0
 10 11  2  0
 11 12  1  0
 12 13  2  0
 12 14  1  0
 14 15  2  0
 15 16  1  0
 16 17  2  0
 17 18  1  0
 18 19  2  0
 19 20  1  0
 20 21  2  0
 21 22  1  0
 15 23  1  0
 23 24  2  0
 24 25  1  0
 25 26  2  0
 26 27  1  0
 26 28  1  0
 28 29  2  0
 13  8  1  0
 22 14  1  0
 22 17  1  0
 29 23  1  0
M  END
>  <Molecule>  (503) 
CHEMBL1991395

>  <Standard Type>  (503) 
Ki

>  <Standard Relation>  (503) 
>

>  <Standard Value>  (503) 
1584.89

>  <Standard Units>  (503) 
nM

>  <pChEMBL Value>  (503) 
nan

>  <Comment>  (503) 
inactive

>  <Compound Key>  (503) 
SID103904759

>  <Assay>  (503) 
CHEMBL1963742

>  <Assay Description>  (503) 
PUBCHEM_BIOASSAY: Navigating the Kinome. (Class of assay: other) Panel member name: JAK3

>  <BAO Format>  (503) 
assay format

>  <Target>  (503) 
CHEMBL2148

>  <Target Pref. Name>  (503) 
Tyrosine-protein kinase JAK3

>  <Target Organism>  (503) 
Homo sapiens

>  <Target Type>  (503) 
SINGLE PROTEIN

>  <Document>  (503) 
CHEMBL1201862

>  <Source>  (503) 
PubChem BioAssays

>  <Max Phase>  (503) 
0

>  <#Ro5 Violations>  (503) 
0

>  <Molecular Weight>  (503) 
392.44

>  <Ligand Efficiency BEI>  (503) 
nan

>  <Ligand Efficiency LE>  (503) 
nan

>  <Ligand Efficiency LLE>  (503) 
nan

>  <Ligand Efficiency SEI>  (503) 
nan

>  <ALogP>  (503) 
3.42

>  <Assay Organism>  (503) 
nan

>  <Assay Tissue ChEMBL ID>  (503) 
nan

>  <Assay Tissue Name>  (503) 
nan

>  <Assay Cell Type>  (503) 
nan

>  <Assay Subcellular Fraction>  (503) 
nan

>  <Organism Tax ID>  (503) 
9606

>  <BAO Format ID>  (503) 
BAO_0000019

>  <Published Type>  (503) 
nan

>  <Published Relation>  (503) 
nan

>  <Published Value>  (503) 
nan

>  <Published Units>  (503) 
nan

>  <Canonical Smiles>  (503) 
CC(C)(CO)CNc1nccc(n1)c2c(nc3cnccn23)c4ccc(F)cc4

>  <Data Validity Comment>  (503) 
nan

>  <Document Journal>  (503) 
nan

>  <Document Year>  (503) 
nan

>  <SRC ID>  (503) 
7

>  <UO Units>  (503) 
UO_0000065

>  <Potential Duplicate>  (503) 
False

>  <Class>  (503) 
0

$$$$

     RDKit          2D

 21 22  0  0  0  0  0  0  0  0999 V2000
    3.7500   -1.2990    0.0000 C   0  0  0  0  0  0  0  0  0  0  0  0
    3.0000    0.0000    0.0000 O   0  0  0  0  0  0  0  0  0  0  0  0
    1.5000    0.0000    0.0000 C   0  0  0  0  0  0  0  0  0  0  0  0
    0.7500   -1.2990    0.0000 C   0  0  0  0  0  0  0  0  0  0  0  0
   -0.7500   -1.2990    0.0000 C   0  0  0  0  0  0  0  0  0  0  0  0
   -1.5000   -2.5981    0.0000 C   0  0  0  0  0  0  0  0  0  0  0  0
   -3.0000   -2.5981    0.0000 C   0  0  0  0  0  0  0  0  0  0  0  0
   -3.7500   -1.2990    0.0000 C   0  0  0  0  0  0  0  0  0  0  0  0
   -4.5000    0.0000    0.0000 N   0  0  0  0  0  0  0  0  0  0  0  0
   -3.7500   -3.8971    0.0000 C   0  0  0  0  0  0  0  0  0  0  0  0
   -3.1399   -5.2674    0.0000 N   0  0  0  0  0  0  0  0  0  0  0  0
   -4.2546   -6.2711    0.0000 N   0  0  0  0  0  0  0  0  0  0  0  0
   -5.5537   -5.5211    0.0000 C   0  0  0  0  0  0  0  0  0  0  0  0
   -6.9240   -6.1312    0.0000 N   0  0  0  0  0  0  0  0  0  0  0  0
   -5.2418   -4.0539    0.0000 C   0  0  0  0  0  0  0  0  0  0  0  0
   -6.2455   -2.9392    0.0000 C   0  0  0  0  0  0  0  0  0  0  0  0
   -7.2492   -1.8245    0.0000 N   0  0  0  0  0  0  0  0  0  0  0  0
   -1.5000    0.0000    0.0000 C   0  0  0  0  0  0  0  0  0  0  0  0
   -0.7500    1.2990    0.0000 C   0  0  0  0  0  0  0  0  0  0  0  0
    0.7500    1.2990    0.0000 C   0  0  0  0  0  0  0  0  0  0  0  0
    1.5000    2.5981    0.0000 O   0  0  0  0  0  0  0  0  0  0  0  0
  1  2  1  0
  2  3  1  0
  3  4  2  0
  4  5  1  0
  5  6  1  0
  6  7  2  3
  7  8  1  0
  8  9  3  0
  7 10  1  0
 10 11  2  0
 11 12  1  0
 12 13  1  0
 13 14  1  0
 13 15  2  0
 15 16  1  0
 16 17  3  0
  5 18  2  0
 18 19  1  0
 19 20  2  0
 20 21  1  0
 20  3  1  0
 15 10  1  0
M  END
>  <Molecule>  (504) 
CHEMBL2002407

>  <Standard Type>  (504) 
Ki

>  <Standard Relation>  (504) 
=

>  <Standard Value>  (504) 
1584.89

>  <Standard Units>  (504) 
nM

>  <pChEMBL Value>  (504) 
5.8

>  <Comment>  (504) 
active

>  <Compound Key>  (504) 
SID103905206

>  <Assay>  (504) 
CHEMBL1963742

>  <Assay Description>  (504) 
PUBCHEM_BIOASSAY: Navigating the Kinome. (Class of assay: other) Panel member name: JAK3

>  <BAO Format>  (504) 
assay format

>  <Target>  (504) 
CHEMBL2148

>  <Target Pref. Name>  (504) 
Tyrosine-protein kinase JAK3

>  <Target Organism>  (504) 
Homo sapiens

>  <Target Type>  (504) 
SINGLE PROTEIN

>  <Document>  (504) 
CHEMBL1201862

>  <Source>  (504) 
PubChem BioAssays

>  <Max Phase>  (504) 
0

>  <#Ro5 Violations>  (504) 
0

>  <Molecular Weight>  (504) 
281.28

>  <Ligand Efficiency BEI>  (504) 
nan

>  <Ligand Efficiency LE>  (504) 
nan

>  <Ligand Efficiency LLE>  (504) 
nan

>  <Ligand Efficiency SEI>  (504) 
nan

>  <ALogP>  (504) 
1.64

>  <Assay Organism>  (504) 
nan

>  <Assay Tissue ChEMBL ID>  (504) 
nan

>  <Assay Tissue Name>  (504) 
nan

>  <Assay Cell Type>  (504) 
nan

>  <Assay Subcellular Fraction>  (504) 
nan

>  <Organism Tax ID>  (504) 
9606

>  <BAO Format ID>  (504) 
BAO_0000019

>  <Published Type>  (504) 
nan

>  <Published Relation>  (504) 
nan

>  <Published Value>  (504) 
nan

>  <Published Units>  (504) 
nan

>  <Canonical Smiles>  (504) 
COc1cc(C=C(C#N)c2n[nH]c(N)c2C#N)ccc1O

>  <Data Validity Comment>  (504) 
nan

>  <Document Journal>  (504) 
nan

>  <Document Year>  (504) 
nan

>  <SRC ID>  (504) 
7

>  <UO Units>  (504) 
UO_0000065

>  <Potential Duplicate>  (504) 
False

>  <Class>  (504) 
1

$$$$

     RDKit          2D

 42 47  0  0  0  0  0  0  0  0999 V2000
   -0.7500   -6.4952    0.0000 C   0  0  0  0  0  0  0  0  0  0  0  0
    0.7500   -6.4952    0.0000 O   0  0  0  0  0  0  0  0  0  0  0  0
    1.5000   -5.1962    0.0000 C   0  0  0  0  0  0  0  0  0  0  0  0
    0.7500   -3.8971    0.0000 C   0  0  0  0  0  0  0  0  0  0  0  0
    1.5000   -2.5981    0.0000 C   0  0  0  0  0  0  0  0  0  0  0  0
    3.0000   -2.5981    0.0000 C   0  0  0  0  0  0  0  0  0  0  0  0
    3.7500   -3.8971    0.0000 C   0  0  0  0  0  0  0  0  0  0  0  0
    3.0000   -5.1962    0.0000 C   0  0  0  0  0  0  0  0  0  0  0  0
    3.7500   -6.4952    0.0000 C   0  0  0  0  0  0  0  0  0  0  0  0
    5.2500   -6.4952    0.0000 C   0  0  0  0  0  0  0  0  0  0  0  0
    6.7500   -6.4952    0.0000 N   0  0  0  0  0  0  0  0  0  0  0  0
    0.7500   -1.2990    0.0000 C   0  0  0  0  0  0  0  0  0  0  0  0
    1.5000    0.0000    0.0000 C   0  0  0  0  0  0  0  0  0  0  0  0
    0.7500    1.2990    0.0000 C   0  0  0  0  0  0  0  0  0  0  0  0
   -0.7500    1.2990    0.0000 C   0  0  0  0  0  0  0  0  0  0  0  0
   -1.2980    2.6953    0.0000 C   0  0  0  0  0  0  0  0  0  0  0  0
   -0.2778    3.7949    0.0000 O   0  0  0  0  0  0  0  0  0  0  0  0
   -2.7314    3.1375    0.0000 N   0  0  0  0  0  0  0  0  0  0  0  0
   -3.9707    2.2925    0.0000 C   0  0  0  0  0  0  0  0  0  0  0  0
   -5.2101    3.1375    0.0000 C   0  0  0  0  0  0  0  0  0  0  0  0
   -6.5615    2.4867    0.0000 C   0  0  0  0  0  0  0  0  0  0  0  0
   -7.8009    3.3316    0.0000 C   0  0  0  0  0  0  0  0  0  0  0  0
   -7.6888    4.8274    0.0000 C   0  0  0  0  0  0  0  0  0  0  0  0
   -8.9282    5.6724    0.0000 O   0  0  0  0  0  0  0  0  0  0  0  0
   -8.8161    7.1682    0.0000 C   0  0  0  0  0  0  0  0  0  0  0  0
   -7.4646    7.8191    0.0000 C   0  0  0  0  0  0  0  0  0  0  0  0
   -7.3525    9.3149    0.0000 C   0  0  0  0  0  0  0  0  0  0  0  0
   -8.5919   10.1598    0.0000 C   0  0  0  0  0  0  0  0  0  0  0  0
   -9.9433    9.5090    0.0000 C   0  0  0  0  0  0  0  0  0  0  0  0
  -10.0554    8.0132    0.0000 C   0  0  0  0  0  0  0  0  0  0  0  0
   -8.4798   11.6556    0.0000 N   0  0  0  0  0  0  0  0  0  0  0  0
   -7.1283   12.3065    0.0000 C   0  0  0  0  0  0  0  0  0  0  0  0
   -7.0162   13.8023    0.0000 C   0  0  0  0  0  0  0  0  0  0  0  0
   -8.2556   14.6473    0.0000 O   0  0  0  0  0  0  0  0  0  0  0  0
   -9.6070   13.9964    0.0000 C   0  0  0  0  0  0  0  0  0  0  0  0
   -9.7191   12.5006    0.0000 C   0  0  0  0  0  0  0  0  0  0  0  0
   -6.6736    0.9909    0.0000 C   0  0  0  0  0  0  0  0  0  0  0  0
   -5.4343    0.1459    0.0000 C   0  0  0  0  0  0  0  0  0  0  0  0
   -4.0828    0.7967    0.0000 C   0  0  0  0  0  0  0  0  0  0  0  0
   -2.9832   -0.2236    0.0000 N   0  0  0  0  0  0  0  0  0  0  0  0
   -1.5000    0.0000    0.0000 C   0  0  0  0  0  0  0  0  0  0  0  0
   -0.7500   -1.2990    0.0000 C   0  0  0  0  0  0  0  0  0  0  0  0
  1  2  1  0
  2  3  1  0
  3  4  2  0
  4  5  1  0
  5  6  2  0
  6  7  1  0
  7  8  2  0
  8  9  1  0
  9 10  1  0
 10 11  3  0
  5 12  1  0
 12 13  2  0
 13 14  1  0
 14 15  2  0
 15 16  1  0
 16 17  2  0
 16 18  1  0
 18 19  1  0
 19 20  2  0
 20 21  1  0
 21 22  1  0
 22 23  1  0
 23 24  1  0
 24 25  1  0
 25 26  2  0
 26 27  1  0
 27 28  2  0
 28 29  1  0
 29 30  2  0
 28 31  1  0
 31 32  1  0
 32 33  1  0
 33 34  1  0
 34 35  1  0
 35 36  1  0
 21 37  2  0
 37 38  1  0
 38 39  2  0
 39 40  1  0
 40 41  1  0
 41 42  2  0
  8  3  1  0
 42 12  1  0
 41 15  1  0
 39 19  1  0
 30 25  1  0
 36 31  1  0
M  END
>  <Molecule>  (505) 
CHEMBL1985566

>  <Standard Type>  (505) 
Ki

>  <Standard Relation>  (505) 
>

>  <Standard Value>  (505) 
1584.89

>  <Standard Units>  (505) 
nM

>  <pChEMBL Value>  (505) 
nan

>  <Comment>  (505) 
inactive

>  <Compound Key>  (505) 
SID103904723

>  <Assay>  (505) 
CHEMBL1963742

>  <Assay Description>  (505) 
PUBCHEM_BIOASSAY: Navigating the Kinome. (Class of assay: other) Panel member name: JAK3

>  <BAO Format>  (505) 
assay format

>  <Target>  (505) 
CHEMBL2148

>  <Target Pref. Name>  (505) 
Tyrosine-protein kinase JAK3

>  <Target Organism>  (505) 
Homo sapiens

>  <Target Type>  (505) 
SINGLE PROTEIN

>  <Document>  (505) 
CHEMBL1201862

>  <Source>  (505) 
PubChem BioAssays

>  <Max Phase>  (505) 
0

>  <#Ro5 Violations>  (505) 
2

>  <Molecular Weight>  (505) 
560.65

>  <Ligand Efficiency BEI>  (505) 
nan

>  <Ligand Efficiency LE>  (505) 
nan

>  <Ligand Efficiency LLE>  (505) 
nan

>  <Ligand Efficiency SEI>  (505) 
nan

>  <ALogP>  (505) 
6.2

>  <Assay Organism>  (505) 
nan

>  <Assay Tissue ChEMBL ID>  (505) 
nan

>  <Assay Tissue Name>  (505) 
nan

>  <Assay Cell Type>  (505) 
nan

>  <Assay Subcellular Fraction>  (505) 
nan

>  <Organism Tax ID>  (505) 
9606

>  <BAO Format ID>  (505) 
BAO_0000019

>  <Published Type>  (505) 
nan

>  <Published Relation>  (505) 
nan

>  <Published Value>  (505) 
nan

>  <Published Units>  (505) 
nan

>  <Canonical Smiles>  (505) 
COc1cc(ccc1CC#N)c2ccc3C(=O)Nc4cc(CCOc5ccc(cc5)N6CCOCC6)ccc4Nc3c2

>  <Data Validity Comment>  (505) 
nan

>  <Document Journal>  (505) 
nan

>  <Document Year>  (505) 
nan

>  <SRC ID>  (505) 
7

>  <UO Units>  (505) 
UO_0000065

>  <Potential Duplicate>  (505) 
False

>  <Class>  (505) 
0

$$$$

     RDKit          2D

 26 29  0  0  0  0  0  0  0  0999 V2000
    3.7500   -1.2990    0.0000 C   0  0  0  0  0  0  0  0  0  0  0  0
    3.0000    0.0000    0.0000 O   0  0  0  0  0  0  0  0  0  0  0  0
    1.5000    0.0000    0.0000 C   0  0  0  0  0  0  0  0  0  0  0  0
    0.7500   -1.2990    0.0000 N   0  0  0  0  0  0  0  0  0  0  0  0
   -0.7500   -1.2990    0.0000 C   0  0  0  0  0  0  0  0  0  0  0  0
   -1.5000    0.0000    0.0000 C   0  0  0  0  0  0  0  0  0  0  0  0
   -0.7500    1.2990    0.0000 C   0  0  0  0  0  0  0  0  0  0  0  0
    0.7500    1.2990    0.0000 N   0  0  0  0  0  0  0  0  0  0  0  0
   -1.5000    2.5981    0.0000 C   0  0  0  0  0  0  0  0  0  0  0  0
   -2.9918    2.7549    0.0000 C   0  0  0  0  0  0  0  0  0  0  0  0
   -3.3037    4.2221    0.0000 N   0  0  0  0  0  0  0  0  0  0  0  0
   -2.0046    4.9721    0.0000 C   0  0  0  0  0  0  0  0  0  0  0  0
   -0.8899    3.9684    0.0000 N   0  0  0  0  0  0  0  0  0  0  0  0
    0.5773    4.2803    0.0000 C   0  0  0  0  0  0  0  0  0  0  0  0
    1.5810    3.1655    0.0000 C   0  0  0  0  0  0  0  0  0  0  0  0
    3.0482    3.4774    0.0000 C   0  0  0  0  0  0  0  0  0  0  0  0
    3.5118    4.9040    0.0000 N   0  0  0  0  0  0  0  0  0  0  0  0
    2.5081    6.0187    0.0000 C   0  0  0  0  0  0  0  0  0  0  0  0
    1.0409    5.7068    0.0000 C   0  0  0  0  0  0  0  0  0  0  0  0
   -3.9955    1.6402    0.0000 C   0  0  0  0  0  0  0  0  0  0  0  0
   -5.4627    1.9520    0.0000 C   0  0  0  0  0  0  0  0  0  0  0  0
   -6.4664    0.8373    0.0000 C   0  0  0  0  0  0  0  0  0  0  0  0
   -6.0029   -0.5893    0.0000 C   0  0  0  0  0  0  0  0  0  0  0  0
   -7.0066   -1.7040    0.0000 F   0  0  0  0  0  0  0  0  0  0  0  0
   -4.5356   -0.9012    0.0000 C   0  0  0  0  0  0  0  0  0  0  0  0
   -3.5320    0.2136    0.0000 C   0  0  0  0  0  0  0  0  0  0  0  0
  1  2  1  0
  2  3  1  0
  3  4  2  0
  4  5  1  0
  5  6  2  0
  6  7  1  0
  7  8  2  0
  7  9  1  0
  9 10  2  0
 10 11  1  0
 11 12  2  0
 12 13  1  0
 13 14  1  0
 14 15  1  0
 15 16  1  0
 16 17  1  0
 17 18  1  0
 18 19  1  0
 10 20  1  0
 20 21  2  0
 21 22  1  0
 22 23  2  0
 23 24  1  0
 23 25  1  0
 25 26  2  0
  8  3  1  0
 13  9  1  0
 19 14  1  0
 26 20  1  0
M  END
>  <Molecule>  (506) 
CHEMBL95692

>  <Standard Type>  (506) 
Ki

>  <Standard Relation>  (506) 
>

>  <Standard Value>  (506) 
1584.89

>  <Standard Units>  (506) 
nM

>  <pChEMBL Value>  (506) 
nan

>  <Comment>  (506) 
inactive

>  <Compound Key>  (506) 
SID103905256

>  <Assay>  (506) 
CHEMBL1963742

>  <Assay Description>  (506) 
PUBCHEM_BIOASSAY: Navigating the Kinome. (Class of assay: other) Panel member name: JAK3

>  <BAO Format>  (506) 
assay format

>  <Target>  (506) 
CHEMBL2148

>  <Target Pref. Name>  (506) 
Tyrosine-protein kinase JAK3

>  <Target Organism>  (506) 
Homo sapiens

>  <Target Type>  (506) 
SINGLE PROTEIN

>  <Document>  (506) 
CHEMBL1201862

>  <Source>  (506) 
PubChem BioAssays

>  <Max Phase>  (506) 
0

>  <#Ro5 Violations>  (506) 
0

>  <Molecular Weight>  (506) 
353.4

>  <Ligand Efficiency BEI>  (506) 
nan

>  <Ligand Efficiency LE>  (506) 
nan

>  <Ligand Efficiency LLE>  (506) 
nan

>  <Ligand Efficiency SEI>  (506) 
nan

>  <ALogP>  (506) 
3.08

>  <Assay Organism>  (506) 
nan

>  <Assay Tissue ChEMBL ID>  (506) 
nan

>  <Assay Tissue Name>  (506) 
nan

>  <Assay Cell Type>  (506) 
nan

>  <Assay Subcellular Fraction>  (506) 
nan

>  <Organism Tax ID>  (506) 
9606

>  <BAO Format ID>  (506) 
BAO_0000019

>  <Published Type>  (506) 
nan

>  <Published Relation>  (506) 
nan

>  <Published Value>  (506) 
nan

>  <Published Units>  (506) 
nan

>  <Canonical Smiles>  (506) 
COc1nccc(n1)c2c(ncn2C3CCNCC3)c4ccc(F)cc4

>  <Data Validity Comment>  (506) 
nan

>  <Document Journal>  (506) 
nan

>  <Document Year>  (506) 
nan

>  <SRC ID>  (506) 
7

>  <UO Units>  (506) 
UO_0000065

>  <Potential Duplicate>  (506) 
False

>  <Class>  (506) 
0

$$$$

     RDKit          2D

 42 46  0  0  0  0  0  0  0  0999 V2000
    3.7500   -1.2990    0.0000 C   0  0  0  0  0  0  0  0  0  0  0  0
    3.0000    0.0000    0.0000 O   0  0  0  0  0  0  0  0  0  0  0  0
    1.5000    0.0000    0.0000 C   0  0  0  0  0  0  0  0  0  0  0  0
    0.7500   -1.2990    0.0000 C   0  0  0  0  0  0  0  0  0  0  0  0
   -0.7500   -1.2990    0.0000 C   0  0  0  0  0  0  0  0  0  0  0  0
   -1.5000    0.0000    0.0000 C   0  0  0  0  0  0  0  0  0  0  0  0
   -0.7500    1.2990    0.0000 C   0  0  0  0  0  0  0  0  0  0  0  0
    0.7500    1.2990    0.0000 C   0  0  0  0  0  0  0  0  0  0  0  0
    1.5000    2.5981    0.0000 N   0  0  0  0  0  0  0  0  0  0  0  0
    3.0000    2.5981    0.0000 C   0  0  0  0  0  0  0  0  0  0  0  0
    3.7500    1.2990    0.0000 N   0  0  0  0  0  0  0  0  0  0  0  0
    5.2500    1.2990    0.0000 C   0  0  0  0  0  0  0  0  0  0  0  0
    6.0000    2.5981    0.0000 C   0  0  0  0  0  0  0  0  0  0  0  0
    7.5000    2.5981    0.0000 Cl  0  0  0  0  0  0  0  0  0  0  0  0
    5.2500    3.8971    0.0000 C   0  0  0  0  0  0  0  0  0  0  0  0
    6.0000    5.1962    0.0000 N   0  0  0  0  0  0  0  0  0  0  0  0
    5.2500    6.4952    0.0000 C   0  0  0  0  0  0  0  0  0  0  0  0
    3.7500    6.4952    0.0000 C   0  0  0  0  0  0  0  0  0  0  0  0
    3.0000    7.7942    0.0000 C   0  0  0  0  0  0  0  0  0  0  0  0
    3.7500    9.0933    0.0000 C   0  0  0  0  0  0  0  0  0  0  0  0
    5.2500    9.0933    0.0000 C   0  0  0  0  0  0  0  0  0  0  0  0
    6.0000    7.7942    0.0000 C   0  0  0  0  0  0  0  0  0  0  0  0
    7.5000    7.7942    0.0000 S   0  0  0  0  0  0  0  0  0  0  0  0
    7.5000    6.2942    0.0000 O   0  0  0  0  0  0  0  0  0  0  0  0
    7.5000    9.2942    0.0000 O   0  0  0  0  0  0  0  0  0  0  0  0
    9.0000    7.7942    0.0000 C   0  0  0  0  0  0  0  0  0  0  0  0
    9.7500    9.0933    0.0000 C   0  0  0  0  0  0  0  0  0  0  0  0
    9.7500    6.4952    0.0000 C   0  0  0  0  0  0  0  0  0  0  0  0
    3.7500    3.8971    0.0000 N   0  0  0  0  0  0  0  0  0  0  0  0
   -1.5000   -2.5981    0.0000 N   0  0  0  0  0  0  0  0  0  0  0  0
   -3.0000   -2.5981    0.0000 C   0  0  0  0  0  0  0  0  0  0  0  0
   -3.7500   -3.8971    0.0000 C   0  0  0  0  0  0  0  0  0  0  0  0
   -3.0000   -5.1962    0.0000 C   0  0  0  0  0  0  0  0  0  0  0  0
   -1.5000   -5.1962    0.0000 C   0  0  0  0  0  0  0  0  0  0  0  0
   -0.7500   -3.8971    0.0000 C   0  0  0  0  0  0  0  0  0  0  0  0
   -3.7500   -6.4952    0.0000 N   0  0  0  0  0  0  0  0  0  0  0  0
   -5.2500   -6.4952    0.0000 C   0  0  0  0  0  0  0  0  0  0  0  0
   -6.0000   -7.7942    0.0000 C   0  0  0  0  0  0  0  0  0  0  0  0
   -5.2500   -9.0933    0.0000 N   0  0  0  0  0  0  0  0  0  0  0  0
   -6.0000  -10.3923    0.0000 C   0  0  0  0  0  0  0  0  0  0  0  0
   -3.7500   -9.0933    0.0000 C   0  0  0  0  0  0  0  0  0  0  0  0
   -3.0000   -7.7942    0.0000 C   0  0  0  0  0  0  0  0  0  0  0  0
  1  2  1  0
  2  3  1  0
  3  4  2  0
  4  5  1  0
  5  6  2  0
  6  7  1  0
  7  8  2  0
  8  9  1  0
  9 10  1  0
 10 11  2  0
 11 12  1  0
 12 13  2  0
 13 14  1  0
 13 15  1  0
 15 16  1  0
 16 17  1  0
 17 18  2  0
 18 19  1  0
 19 20  2  0
 20 21  1  0
 21 22  2  0
 22 23  1  0
 23 24  2  0
 23 25  2  0
 23 26  1  0
 26 27  1  0
 26 28  1  0
 15 29  2  0
  5 30  1  0
 30 31  1  0
 31 32  1  0
 32 33  1  0
 33 34  1  0
 34 35  1  0
 33 36  1  0
 36 37  1  0
 37 38  1  0
 38 39  1  0
 39 40  1  0
 39 41  1  0
 41 42  1  0
  8  3  1  0
 29 10  1  0
 22 17  1  0
 35 30  1  0
 42 36  1  0
M  END
>  <Molecule>  (507) 
CHEMBL509032

>  <Standard Type>  (507) 
Ki

>  <Standard Relation>  (507) 
=

>  <Standard Value>  (507) 
199.53

>  <Standard Units>  (507) 
nM

>  <pChEMBL Value>  (507) 
6.7

>  <Comment>  (507) 
active

>  <Compound Key>  (507) 
SID103904598

>  <Assay>  (507) 
CHEMBL1963742

>  <Assay Description>  (507) 
PUBCHEM_BIOASSAY: Navigating the Kinome. (Class of assay: other) Panel member name: JAK3

>  <BAO Format>  (507) 
assay format

>  <Target>  (507) 
CHEMBL2148

>  <Target Pref. Name>  (507) 
Tyrosine-protein kinase JAK3

>  <Target Organism>  (507) 
Homo sapiens

>  <Target Type>  (507) 
SINGLE PROTEIN

>  <Document>  (507) 
CHEMBL1201862

>  <Source>  (507) 
PubChem BioAssays

>  <Max Phase>  (507) 
0

>  <#Ro5 Violations>  (507) 
2

>  <Molecular Weight>  (507) 
614.22

>  <Ligand Efficiency BEI>  (507) 
nan

>  <Ligand Efficiency LE>  (507) 
nan

>  <Ligand Efficiency LLE>  (507) 
nan

>  <Ligand Efficiency SEI>  (507) 
nan

>  <ALogP>  (507) 
5.02

>  <Assay Organism>  (507) 
nan

>  <Assay Tissue ChEMBL ID>  (507) 
nan

>  <Assay Tissue Name>  (507) 
nan

>  <Assay Cell Type>  (507) 
nan

>  <Assay Subcellular Fraction>  (507) 
nan

>  <Organism Tax ID>  (507) 
9606

>  <BAO Format ID>  (507) 
BAO_0000019

>  <Published Type>  (507) 
nan

>  <Published Relation>  (507) 
nan

>  <Published Value>  (507) 
nan

>  <Published Units>  (507) 
nan

>  <Canonical Smiles>  (507) 
COc1cc(ccc1Nc2ncc(Cl)c(Nc3ccccc3S(=O)(=O)C(C)C)n2)N4CCC(CC4)N5CCN(C)CC5

>  <Data Validity Comment>  (507) 
nan

>  <Document Journal>  (507) 
nan

>  <Document Year>  (507) 
nan

>  <SRC ID>  (507) 
7

>  <UO Units>  (507) 
UO_0000065

>  <Potential Duplicate>  (507) 
False

>  <Class>  (507) 
1

$$$$

     RDKit          2D

 32 34  0  0  0  0  0  0  0  0999 V2000
   -1.0409   -8.3049    0.0000 N   0  0  0  0  0  0  0  0  0  0  0  0
   -0.5773   -6.8783    0.0000 C   0  0  0  0  0  0  0  0  0  0  0  0
   -1.5810   -5.7636    0.0000 O   0  0  0  0  0  0  0  0  0  0  0  0
    0.8899   -6.5665    0.0000 C   0  0  0  0  0  0  0  0  0  0  0  0
    2.0046   -7.5702    0.0000 C   0  0  0  0  0  0  0  0  0  0  0  0
    1.8478   -9.0619    0.0000 N   0  0  0  0  0  0  0  0  0  0  0  0
    3.0613   -9.9436    0.0000 C   0  0  0  0  0  0  0  0  0  0  0  0
    4.4317   -9.3335    0.0000 O   0  0  0  0  0  0  0  0  0  0  0  0
    2.9046  -11.4354    0.0000 N   0  0  0  0  0  0  0  0  0  0  0  0
    4.1181  -12.3171    0.0000 C   0  0  0  0  0  0  0  0  0  0  0  0
    3.9613  -13.8089    0.0000 C   0  0  0  0  0  0  0  0  0  0  0  0
    5.1748  -14.6905    0.0000 C   0  0  0  0  0  0  0  0  0  0  0  0
    5.0180  -16.1823    0.0000 C   0  0  0  0  0  0  0  0  0  0  0  0
    6.2315  -17.0640    0.0000 N   0  0  0  0  0  0  0  0  0  0  0  0
    7.6581  -16.6005    0.0000 C   0  0  0  0  0  0  0  0  0  0  0  0
    8.5398  -17.8140    0.0000 C   0  0  0  0  0  0  0  0  0  0  0  0
    7.6581  -19.0275    0.0000 C   0  0  0  0  0  0  0  0  0  0  0  0
    6.2315  -18.5640    0.0000 C   0  0  0  0  0  0  0  0  0  0  0  0
    3.3037   -6.8202    0.0000 S   0  0  0  0  0  0  0  0  0  0  0  0
    2.9918   -5.3529    0.0000 N   0  0  0  0  0  0  0  0  0  0  0  0
    1.5000   -5.1962    0.0000 C   0  0  0  0  0  0  0  0  0  0  0  0
    0.7500   -3.8971    0.0000 O   0  0  0  0  0  0  0  0  0  0  0  0
    1.5000   -2.5981    0.0000 C   0  0  0  0  0  0  0  0  0  0  0  0
    0.7500   -1.2990    0.0000 C   0  0  0  0  0  0  0  0  0  0  0  0
    1.5000    0.0000    0.0000 C   0  0  0  0  0  0  0  0  0  0  0  0
    3.0000    0.0000    0.0000 F   0  0  0  0  0  0  0  0  0  0  0  0
    0.7500    1.2990    0.0000 C   0  0  0  0  0  0  0  0  0  0  0  0
   -0.7500    1.2990    0.0000 C   0  0  0  0  0  0  0  0  0  0  0  0
   -1.5000    2.5981    0.0000 Br  0  0  0  0  0  0  0  0  0  0  0  0
   -1.5000    0.0000    0.0000 C   0  0  0  0  0  0  0  0  0  0  0  0
   -0.7500   -1.2990    0.0000 C   0  0  0  0  0  0  0  0  0  0  0  0
   -1.5000   -2.5981    0.0000 F   0  0  0  0  0  0  0  0  0  0  0  0
  1  2  1  0
  2  3  2  0
  2  4  1  0
  4  5  2  0
  5  6  1  0
  6  7  1  0
  7  8  2  0
  7  9  1  0
  9 10  1  0
 10 11  1  0
 11 12  1  0
 12 13  1  0
 13 14  1  0
 14 15  1  0
 15 16  1  0
 16 17  1  0
 17 18  1  0
  5 19  1  0
 19 20  1  0
 20 21  2  0
 21 22  1  0
 22 23  1  0
 23 24  1  0
 24 25  2  0
 25 26  1  0
 25 27  1  0
 27 28  2  0
 28 29  1  0
 28 30  1  0
 30 31  2  0
 31 32  1  0
 21  4  1  0
 18 14  1  0
 31 24  1  0
M  END
>  <Molecule>  (508) 
CHEMBL253969

>  <Standard Type>  (508) 
Ki

>  <Standard Relation>  (508) 
>

>  <Standard Value>  (508) 
3162.28

>  <Standard Units>  (508) 
nM

>  <pChEMBL Value>  (508) 
nan

>  <Comment>  (508) 
inactive

>  <Compound Key>  (508) 
SID103905622

>  <Assay>  (508) 
CHEMBL1963742

>  <Assay Description>  (508) 
PUBCHEM_BIOASSAY: Navigating the Kinome. (Class of assay: other) Panel member name: JAK3

>  <BAO Format>  (508) 
assay format

>  <Target>  (508) 
CHEMBL2148

>  <Target Pref. Name>  (508) 
Tyrosine-protein kinase JAK3

>  <Target Organism>  (508) 
Homo sapiens

>  <Target Type>  (508) 
SINGLE PROTEIN

>  <Document>  (508) 
CHEMBL1201862

>  <Source>  (508) 
PubChem BioAssays

>  <Max Phase>  (508) 
2

>  <#Ro5 Violations>  (508) 
1

>  <Molecular Weight>  (508) 
532.41

>  <Ligand Efficiency BEI>  (508) 
nan

>  <Ligand Efficiency LE>  (508) 
nan

>  <Ligand Efficiency LLE>  (508) 
nan

>  <Ligand Efficiency SEI>  (508) 
nan

>  <ALogP>  (508) 
3.86

>  <Assay Organism>  (508) 
nan

>  <Assay Tissue ChEMBL ID>  (508) 
nan

>  <Assay Tissue Name>  (508) 
nan

>  <Assay Cell Type>  (508) 
nan

>  <Assay Subcellular Fraction>  (508) 
nan

>  <Organism Tax ID>  (508) 
9606

>  <BAO Format ID>  (508) 
BAO_0000019

>  <Published Type>  (508) 
nan

>  <Published Relation>  (508) 
nan

>  <Published Value>  (508) 
nan

>  <Published Units>  (508) 
nan

>  <Canonical Smiles>  (508) 
NC(=O)c1c(NC(=O)NCCCCN2CCCC2)snc1OCc3c(F)cc(Br)cc3F

>  <Data Validity Comment>  (508) 
nan

>  <Document Journal>  (508) 
nan

>  <Document Year>  (508) 
nan

>  <SRC ID>  (508) 
7

>  <UO Units>  (508) 
UO_0000065

>  <Potential Duplicate>  (508) 
False

>  <Class>  (508) 
0

$$$$

     RDKit          2D

 27 30  0  0  0  0  0  0  0  0999 V2000
  -11.1996   -5.9703    0.0000 O   0  0  0  0  0  0  0  0  0  0  0  0
   -9.7730   -5.5068    0.0000 C   0  0  0  0  0  0  0  0  0  0  0  0
   -9.4612   -4.0396    0.0000 C   0  0  0  0  0  0  0  0  0  0  0  0
   -8.0346   -3.5760    0.0000 N   0  0  0  0  0  0  0  0  0  0  0  0
   -6.9199   -4.5797    0.0000 C   0  0  0  0  0  0  0  0  0  0  0  0
   -7.2317   -6.0469    0.0000 O   0  0  0  0  0  0  0  0  0  0  0  0
   -5.4933   -4.1162    0.0000 N   0  0  0  0  0  0  0  0  0  0  0  0
   -4.3786   -5.1199    0.0000 C   0  0  0  0  0  0  0  0  0  0  0  0
   -2.9520   -4.6564    0.0000 C   0  0  0  0  0  0  0  0  0  0  0  0
   -2.6401   -3.1891    0.0000 C   0  0  0  0  0  0  0  0  0  0  0  0
   -3.7548   -2.1855    0.0000 C   0  0  0  0  0  0  0  0  0  0  0  0
   -5.1814   -2.6490    0.0000 C   0  0  0  0  0  0  0  0  0  0  0  0
   -1.2135   -2.7256    0.0000 C   0  0  0  0  0  0  0  0  0  0  0  0
    0.0000   -3.6073    0.0000 C   0  0  0  0  0  0  0  0  0  0  0  0
    1.2135   -2.7256    0.0000 N   0  0  0  0  0  0  0  0  0  0  0  0
    0.7500   -1.2990    0.0000 C   0  0  0  0  0  0  0  0  0  0  0  0
    1.5000    0.0000    0.0000 N   0  0  0  0  0  0  0  0  0  0  0  0
    0.7500    1.2990    0.0000 C   0  0  0  0  0  0  0  0  0  0  0  0
   -0.7500    1.2990    0.0000 C   0  0  0  0  0  0  0  0  0  0  0  0
   -1.5000    0.0000    0.0000 C   0  0  0  0  0  0  0  0  0  0  0  0
   -0.7500   -1.2990    0.0000 C   0  0  0  0  0  0  0  0  0  0  0  0
  -10.5759   -3.0359    0.0000 C   0  0  0  0  0  0  0  0  0  0  0  0
  -10.2640   -1.5686    0.0000 C   0  0  0  0  0  0  0  0  0  0  0  0
  -11.3787   -0.5649    0.0000 C   0  0  0  0  0  0  0  0  0  0  0  0
  -12.8053   -1.0285    0.0000 C   0  0  0  0  0  0  0  0  0  0  0  0
  -13.1172   -2.4957    0.0000 C   0  0  0  0  0  0  0  0  0  0  0  0
  -12.0025   -3.4994    0.0000 C   0  0  0  0  0  0  0  0  0  0  0  0
  1  2  1  0
  2  3  1  0
  3  4  1  0
  4  5  1  0
  5  6  2  0
  5  7  1  0
  7  8  1  0
  8  9  1  0
  9 10  1  0
 10 11  2  0
 11 12  1  0
 10 13  1  0
 13 14  2  0
 14 15  1  0
 15 16  1  0
 16 17  2  0
 17 18  1  0
 18 19  2  0
 19 20  1  0
 20 21  2  0
  3 22  1  0
 22 23  2  0
 23 24  1  0
 24 25  2  0
 25 26  1  0
 26 27  2  0
 12  7  1  0
 21 13  1  0
 21 16  1  0
 27 22  1  0
M  END
>  <Molecule>  (509) 
CHEMBL1964937

>  <Standard Type>  (509) 
Ki

>  <Standard Relation>  (509) 
=

>  <Standard Value>  (509) 
1584.89

>  <Standard Units>  (509) 
nM

>  <pChEMBL Value>  (509) 
5.8

>  <Comment>  (509) 
active

>  <Compound Key>  (509) 
SID103904206

>  <Assay>  (509) 
CHEMBL1963742

>  <Assay Description>  (509) 
PUBCHEM_BIOASSAY: Navigating the Kinome. (Class of assay: other) Panel member name: JAK3

>  <BAO Format>  (509) 
assay format

>  <Target>  (509) 
CHEMBL2148

>  <Target Pref. Name>  (509) 
Tyrosine-protein kinase JAK3

>  <Target Organism>  (509) 
Homo sapiens

>  <Target Type>  (509) 
SINGLE PROTEIN

>  <Document>  (509) 
CHEMBL1201862

>  <Source>  (509) 
PubChem BioAssays

>  <Max Phase>  (509) 
0

>  <#Ro5 Violations>  (509) 
0

>  <Molecular Weight>  (509) 
362.43

>  <Ligand Efficiency BEI>  (509) 
nan

>  <Ligand Efficiency LE>  (509) 
nan

>  <Ligand Efficiency LLE>  (509) 
nan

>  <Ligand Efficiency SEI>  (509) 
nan

>  <ALogP>  (509) 
3.1

>  <Assay Organism>  (509) 
nan

>  <Assay Tissue ChEMBL ID>  (509) 
nan

>  <Assay Tissue Name>  (509) 
nan

>  <Assay Cell Type>  (509) 
nan

>  <Assay Subcellular Fraction>  (509) 
nan

>  <Organism Tax ID>  (509) 
9606

>  <BAO Format ID>  (509) 
BAO_0000019

>  <Published Type>  (509) 
nan

>  <Published Relation>  (509) 
nan

>  <Published Value>  (509) 
nan

>  <Published Units>  (509) 
nan

>  <Canonical Smiles>  (509) 
OCC(NC(=O)N1CCC(=CC1)c2c[nH]c3ncccc23)c4ccccc4

>  <Data Validity Comment>  (509) 
nan

>  <Document Journal>  (509) 
nan

>  <Document Year>  (509) 
nan

>  <SRC ID>  (509) 
7

>  <UO Units>  (509) 
UO_0000065

>  <Potential Duplicate>  (509) 
False

>  <Class>  (509) 
1

$$$$

     RDKit          2D

 46 52  0  0  0  0  0  0  0  0999 V2000
    2.5981   -8.1073    0.0000 C   0  0  0  0  0  0  0  0  0  0  0  0
    1.2990   -7.3573    0.0000 O   0  0  0  0  0  0  0  0  0  0  0  0
   -0.0000   -8.1073    0.0000 C   0  0  0  0  0  0  0  0  0  0  0  0
   -0.0000   -9.6073    0.0000 C   0  0  0  0  0  0  0  0  0  0  0  0
   -1.2990  -10.3573    0.0000 C   0  0  0  0  0  0  0  0  0  0  0  0
   -2.5981   -9.6073    0.0000 C   0  0  0  0  0  0  0  0  0  0  0  0
   -2.5981   -8.1073    0.0000 C   0  0  0  0  0  0  0  0  0  0  0  0
   -1.2990   -7.3573    0.0000 C   0  0  0  0  0  0  0  0  0  0  0  0
   -1.2990   -5.8573    0.0000 N   0  0  0  0  0  0  0  0  0  0  0  0
   -0.0000   -5.1073    0.0000 C   0  0  0  0  0  0  0  0  0  0  0  0
    1.2990   -5.8573    0.0000 O   0  0  0  0  0  0  0  0  0  0  0  0
   -0.0000   -3.6073    0.0000 C   0  0  0  0  0  0  0  0  0  0  0  0
    1.2135   -2.7256    0.0000 C   0  0  0  0  0  0  0  0  0  0  0  0
    0.7500   -1.2990    0.0000 C   0  0  0  0  0  0  0  0  0  0  0  0
    1.5000    0.0000    0.0000 C   0  0  0  0  0  0  0  0  0  0  0  0
    0.7500    1.2990    0.0000 C   0  0  0  0  0  0  0  0  0  0  0  0
   -0.7500    1.2990    0.0000 C   0  0  0  0  0  0  0  0  0  0  0  0
   -1.5000    0.0000    0.0000 C   0  0  0  0  0  0  0  0  0  0  0  0
   -0.7500   -1.2990    0.0000 C   0  0  0  0  0  0  0  0  0  0  0  0
   -1.2135   -2.7256    0.0000 N   0  0  0  0  0  0  0  0  0  0  0  0
   -2.6401   -3.1891    0.0000 C   0  0  0  0  0  0  0  0  0  0  0  0
   -1.2990  -11.8573    0.0000 C   0  0  0  0  0  0  0  0  0  0  0  0
   -0.0855  -12.7390    0.0000 N   0  0  0  0  0  0  0  0  0  0  0  0
   -0.5490  -14.1656    0.0000 N   0  0  0  0  0  0  0  0  0  0  0  0
    0.3326  -15.3791    0.0000 C   0  0  0  0  0  0  0  0  0  0  0  0
   -0.2775  -16.7494    0.0000 C   0  0  0  0  0  0  0  0  0  0  0  0
    0.6042  -17.9629    0.0000 C   0  0  0  0  0  0  0  0  0  0  0  0
    2.0960  -17.8061    0.0000 C   0  0  0  0  0  0  0  0  0  0  0  0
    2.7061  -16.4358    0.0000 C   0  0  0  0  0  0  0  0  0  0  0  0
    1.8244  -15.2223    0.0000 C   0  0  0  0  0  0  0  0  0  0  0  0
    2.9777  -19.0197    0.0000 N   0  0  0  0  0  0  0  0  0  0  0  0
    2.3676  -20.3900    0.0000 C   0  0  0  0  0  0  0  0  0  0  0  0
    3.2492  -21.6035    0.0000 C   0  0  0  0  0  0  0  0  0  0  0  0
    4.7410  -21.4467    0.0000 N   0  0  0  0  0  0  0  0  0  0  0  0
    5.3511  -20.0764    0.0000 C   0  0  0  0  0  0  0  0  0  0  0  0
    4.4695  -18.8629    0.0000 C   0  0  0  0  0  0  0  0  0  0  0  0
    5.6227  -22.6602    0.0000 C   0  0  0  0  0  0  0  0  0  0  0  0
    7.1145  -22.5034    0.0000 O   0  0  0  0  0  0  0  0  0  0  0  0
    5.0126  -24.0306    0.0000 C   0  0  0  0  0  0  0  0  0  0  0  0
   -2.0490  -14.1656    0.0000 C   0  0  0  0  0  0  0  0  0  0  0  0
   -3.0527  -15.2803    0.0000 N   0  0  0  0  0  0  0  0  0  0  0  0
   -4.5200  -14.9684    0.0000 C   0  0  0  0  0  0  0  0  0  0  0  0
   -4.9835  -13.5418    0.0000 N   0  0  0  0  0  0  0  0  0  0  0  0
   -3.9798  -12.4271    0.0000 C   0  0  0  0  0  0  0  0  0  0  0  0
   -4.4433  -11.0005    0.0000 N   0  0  0  0  0  0  0  0  0  0  0  0
   -2.5126  -12.7390    0.0000 C   0  0  0  0  0  0  0  0  0  0  0  0
  1  2  1  0
  2  3  1  0
  3  4  2  0
  4  5  1  0
  5  6  2  0
  6  7  1  0
  7  8  2  0
  8  9  1  0
  9 10  1  0
 10 11  2  0
 10 12  1  0
 12 13  2  0
 13 14  1  0
 14 15  2  0
 15 16  1  0
 16 17  2  0
 17 18  1  0
 18 19  2  0
 19 20  1  0
 20 21  1  0
  5 22  1  0
 22 23  2  0
 23 24  1  0
 24 25  1  0
 25 26  1  0
 26 27  1  0
 27 28  1  0
 28 29  1  0
 29 30  1  0
 28 31  1  0
 31 32  1  0
 32 33  1  0
 33 34  1  0
 34 35  1  0
 35 36  1  0
 34 37  1  0
 37 38  2  0
 37 39  1  0
 24 40  1  0
 40 41  2  0
 41 42  1  0
 42 43  2  0
 43 44  1  0
 44 45  1  0
 44 46  2  0
  8  3  1  0
 20 12  1  0
 19 14  1  0
 46 22  1  0
 30 25  1  0
 36 31  1  0
 46 40  1  0
M  END
>  <Molecule>  (510) 
CHEMBL1970879

>  <Standard Type>  (510) 
Ki

>  <Standard Relation>  (510) 
>

>  <Standard Value>  (510) 
1584.89

>  <Standard Units>  (510) 
nM

>  <pChEMBL Value>  (510) 
nan

>  <Comment>  (510) 
inactive

>  <Compound Key>  (510) 
SID103905316

>  <Assay>  (510) 
CHEMBL1963742

>  <Assay Description>  (510) 
PUBCHEM_BIOASSAY: Navigating the Kinome. (Class of assay: other) Panel member name: JAK3

>  <BAO Format>  (510) 
assay format

>  <Target>  (510) 
CHEMBL2148

>  <Target Pref. Name>  (510) 
Tyrosine-protein kinase JAK3

>  <Target Organism>  (510) 
Homo sapiens

>  <Target Type>  (510) 
SINGLE PROTEIN

>  <Document>  (510) 
CHEMBL1201862

>  <Source>  (510) 
PubChem BioAssays

>  <Max Phase>  (510) 
0

>  <#Ro5 Violations>  (510) 
1

>  <Molecular Weight>  (510) 
621.75

>  <Ligand Efficiency BEI>  (510) 
nan

>  <Ligand Efficiency LE>  (510) 
nan

>  <Ligand Efficiency LLE>  (510) 
nan

>  <Ligand Efficiency SEI>  (510) 
nan

>  <ALogP>  (510) 
4.48

>  <Assay Organism>  (510) 
nan

>  <Assay Tissue ChEMBL ID>  (510) 
nan

>  <Assay Tissue Name>  (510) 
nan

>  <Assay Cell Type>  (510) 
nan

>  <Assay Subcellular Fraction>  (510) 
nan

>  <Organism Tax ID>  (510) 
9606

>  <BAO Format ID>  (510) 
BAO_0000019

>  <Published Type>  (510) 
nan

>  <Published Relation>  (510) 
nan

>  <Published Value>  (510) 
nan

>  <Published Units>  (510) 
nan

>  <Canonical Smiles>  (510) 
COc1cc(ccc1NC(=O)c2cc3ccccc3n2C)c4nn(C5CCC(CC5)N6CCN(CC6)C(=O)C)c7ncnc(N)c47

>  <Data Validity Comment>  (510) 
nan

>  <Document Journal>  (510) 
nan

>  <Document Year>  (510) 
nan

>  <SRC ID>  (510) 
7

>  <UO Units>  (510) 
UO_0000065

>  <Potential Duplicate>  (510) 
False

>  <Class>  (510) 
0

$$$$

     RDKit          2D

 27 29  0  0  0  0  0  0  0  0999 V2000
   -6.1170   -7.0506    0.0000 C   0  0  0  0  0  0  0  0  0  0  0  0
   -4.6904   -6.5871    0.0000 C   0  0  0  0  0  0  0  0  0  0  0  0
   -3.5757   -7.5908    0.0000 O   0  0  0  0  0  0  0  0  0  0  0  0
   -4.3786   -5.1199    0.0000 O   0  0  0  0  0  0  0  0  0  0  0  0
   -2.9520   -4.6564    0.0000 C   0  0  0  0  0  0  0  0  0  0  0  0
   -2.6401   -3.1891    0.0000 C   0  0  0  0  0  0  0  0  0  0  0  0
   -1.2135   -2.7256    0.0000 N   0  0  0  0  0  0  0  0  0  0  0  0
   -0.0000   -3.6073    0.0000 N   0  0  0  0  0  0  0  0  0  0  0  0
    1.2135   -2.7256    0.0000 C   0  0  0  0  0  0  0  0  0  0  0  0
    2.6401   -3.1891    0.0000 C   0  0  0  0  0  0  0  0  0  0  0  0
    2.9520   -4.6564    0.0000 C   0  0  0  0  0  0  0  0  0  0  0  0
    4.3786   -5.1199    0.0000 C   0  0  0  0  0  0  0  0  0  0  0  0
    5.4933   -4.1162    0.0000 C   0  0  0  0  0  0  0  0  0  0  0  0
    5.1814   -2.6490    0.0000 C   0  0  0  0  0  0  0  0  0  0  0  0
    6.2961   -1.6453    0.0000 Br  0  0  0  0  0  0  0  0  0  0  0  0
    3.7548   -2.1855    0.0000 C   0  0  0  0  0  0  0  0  0  0  0  0
    0.7500   -1.2990    0.0000 C   0  0  0  0  0  0  0  0  0  0  0  0
    1.5000    0.0000    0.0000 C   0  0  0  0  0  0  0  0  0  0  0  0
    0.7500    1.2990    0.0000 C   0  0  0  0  0  0  0  0  0  0  0  0
   -0.7500    1.2990    0.0000 C   0  0  0  0  0  0  0  0  0  0  0  0
   -1.5000    2.5981    0.0000 O   0  0  0  0  0  0  0  0  0  0  0  0
   -1.5000    0.0000    0.0000 N   0  0  0  0  0  0  0  0  0  0  0  0
   -0.7500   -1.2990    0.0000 C   0  0  0  0  0  0  0  0  0  0  0  0
    3.0000    0.0000    0.0000 C   0  0  0  0  0  0  0  0  0  0  0  0
    4.5000    0.0000    0.0000 F   0  0  0  0  0  0  0  0  0  0  0  0
    3.0000    1.5000    0.0000 F   0  0  0  0  0  0  0  0  0  0  0  0
    3.0000   -1.5000    0.0000 F   0  0  0  0  0  0  0  0  0  0  0  0
  1  2  1  0
  2  3  2  0
  2  4  1  0
  4  5  1  0
  5  6  1  0
  6  7  1  0
  7  8  1  0
  8  9  2  0
  9 10  1  0
 10 11  2  0
 11 12  1  0
 12 13  2  0
 13 14  1  0
 14 15  1  0
 14 16  2  0
  9 17  1  0
 17 18  1  0
 18 19  2  0
 19 20  1  0
 20 21  2  0
 20 22  1  0
 22 23  1  0
 18 24  1  0
 24 25  1  0
 24 26  1  0
 24 27  1  0
 23  7  1  0
 16 10  1  0
 23 17  2  0
M  END
>  <Molecule>  (511) 
CHEMBL1984847

>  <Standard Type>  (511) 
Ki

>  <Standard Relation>  (511) 
>

>  <Standard Value>  (511) 
5011.87

>  <Standard Units>  (511) 
nM

>  <pChEMBL Value>  (511) 
nan

>  <Comment>  (511) 
inactive

>  <Compound Key>  (511) 
SID103905588

>  <Assay>  (511) 
CHEMBL1963742

>  <Assay Description>  (511) 
PUBCHEM_BIOASSAY: Navigating the Kinome. (Class of assay: other) Panel member name: JAK3

>  <BAO Format>  (511) 
assay format

>  <Target>  (511) 
CHEMBL2148

>  <Target Pref. Name>  (511) 
Tyrosine-protein kinase JAK3

>  <Target Organism>  (511) 
Homo sapiens

>  <Target Type>  (511) 
SINGLE PROTEIN

>  <Document>  (511) 
CHEMBL1201862

>  <Source>  (511) 
PubChem BioAssays

>  <Max Phase>  (511) 
0

>  <#Ro5 Violations>  (511) 
0

>  <Molecular Weight>  (511) 
444.21

>  <Ligand Efficiency BEI>  (511) 
nan

>  <Ligand Efficiency LE>  (511) 
nan

>  <Ligand Efficiency LLE>  (511) 
nan

>  <Ligand Efficiency SEI>  (511) 
nan

>  <ALogP>  (511) 
3.74

>  <Assay Organism>  (511) 
nan

>  <Assay Tissue ChEMBL ID>  (511) 
nan

>  <Assay Tissue Name>  (511) 
nan

>  <Assay Cell Type>  (511) 
nan

>  <Assay Subcellular Fraction>  (511) 
nan

>  <Organism Tax ID>  (511) 
9606

>  <BAO Format ID>  (511) 
BAO_0000019

>  <Published Type>  (511) 
nan

>  <Published Relation>  (511) 
nan

>  <Published Value>  (511) 
nan

>  <Published Units>  (511) 
nan

>  <Canonical Smiles>  (511) 
CC(=O)OCCn1nc(c2cccc(Br)c2)c3C(=CC(=O)Nc13)C(F)(F)F

>  <Data Validity Comment>  (511) 
nan

>  <Document Journal>  (511) 
nan

>  <Document Year>  (511) 
nan

>  <SRC ID>  (511) 
7

>  <UO Units>  (511) 
UO_0000065

>  <Potential Duplicate>  (511) 
False

>  <Class>  (511) 
0

$$$$

     RDKit          2D

 30 33  0  0  0  0  0  0  0  0999 V2000
   -1.5718    8.0851    0.0000 C   0  0  0  0  0  0  0  0  0  0  0  0
   -1.8836    6.6179    0.0000 N   0  0  0  0  0  0  0  0  0  0  0  0
   -0.7689    5.6142    0.0000 C   0  0  0  0  0  0  0  0  0  0  0  0
   -3.3102    6.1544    0.0000 C   0  0  0  0  0  0  0  0  0  0  0  0
   -3.6221    4.6871    0.0000 C   0  0  0  0  0  0  0  0  0  0  0  0
   -2.5074    3.6834    0.0000 O   0  0  0  0  0  0  0  0  0  0  0  0
   -5.0487    4.2236    0.0000 N   0  0  0  0  0  0  0  0  0  0  0  0
   -5.3605    2.7564    0.0000 C   0  0  0  0  0  0  0  0  0  0  0  0
   -4.2458    1.7527    0.0000 C   0  0  0  0  0  0  0  0  0  0  0  0
   -4.5577    0.2855    0.0000 C   0  0  0  0  0  0  0  0  0  0  0  0
   -5.9843   -0.1781    0.0000 C   0  0  0  0  0  0  0  0  0  0  0  0
   -7.0990    0.8256    0.0000 C   0  0  0  0  0  0  0  0  0  0  0  0
   -6.7871    2.2929    0.0000 C   0  0  0  0  0  0  0  0  0  0  0  0
   -6.2961   -1.6453    0.0000 N   0  0  0  0  0  0  0  0  0  0  0  0
   -5.1814   -2.6490    0.0000 C   0  0  0  0  0  0  0  0  0  0  0  0
   -5.4933   -4.1162    0.0000 N   0  0  0  0  0  0  0  0  0  0  0  0
   -4.3786   -5.1199    0.0000 C   0  0  0  0  0  0  0  0  0  0  0  0
   -4.6904   -6.5871    0.0000 Cl  0  0  0  0  0  0  0  0  0  0  0  0
   -2.9520   -4.6564    0.0000 C   0  0  0  0  0  0  0  0  0  0  0  0
   -2.6401   -3.1891    0.0000 C   0  0  0  0  0  0  0  0  0  0  0  0
   -3.7548   -2.1855    0.0000 N   0  0  0  0  0  0  0  0  0  0  0  0
   -1.2135   -2.7256    0.0000 C   0  0  0  0  0  0  0  0  0  0  0  0
    0.0000   -3.6073    0.0000 C   0  0  0  0  0  0  0  0  0  0  0  0
    1.2135   -2.7256    0.0000 N   0  0  0  0  0  0  0  0  0  0  0  0
    0.7500   -1.2990    0.0000 C   0  0  0  0  0  0  0  0  0  0  0  0
    1.5000    0.0000    0.0000 N   0  0  0  0  0  0  0  0  0  0  0  0
    0.7500    1.2990    0.0000 C   0  0  0  0  0  0  0  0  0  0  0  0
   -0.7500    1.2990    0.0000 C   0  0  0  0  0  0  0  0  0  0  0  0
   -1.5000    0.0000    0.0000 C   0  0  0  0  0  0  0  0  0  0  0  0
   -0.7500   -1.2990    0.0000 C   0  0  0  0  0  0  0  0  0  0  0  0
  1  2  1  0
  2  3  1  0
  2  4  1  0
  4  5  1  0
  5  6  2  0
  5  7  1  0
  7  8  1  0
  8  9  1  0
  9 10  1  0
 10 11  1  0
 11 12  1  0
 12 13  1  0
 11 14  1  0
 14 15  1  0
 15 16  2  0
 16 17  1  0
 17 18  1  0
 17 19  2  0
 19 20  1  0
 20 21  2  0
 20 22  1  0
 22 23  2  0
 23 24  1  0
 24 25  1  0
 25 26  2  0
 26 27  1  0
 27 28  2  0
 28 29  1  0
 29 30  2  0
 13  8  1  0
 21 15  1  0
 30 22  1  0
 30 25  1  0
M  END
>  <Molecule>  (512) 
CHEMBL1982271

>  <Standard Type>  (512) 
Ki

>  <Standard Relation>  (512) 
=

>  <Standard Value>  (512) 
100.0

>  <Standard Units>  (512) 
nM

>  <pChEMBL Value>  (512) 
7.0

>  <Comment>  (512) 
active

>  <Compound Key>  (512) 
SID103904235

>  <Assay>  (512) 
CHEMBL1963742

>  <Assay Description>  (512) 
PUBCHEM_BIOASSAY: Navigating the Kinome. (Class of assay: other) Panel member name: JAK3

>  <BAO Format>  (512) 
assay format

>  <Target>  (512) 
CHEMBL2148

>  <Target Pref. Name>  (512) 
Tyrosine-protein kinase JAK3

>  <Target Organism>  (512) 
Homo sapiens

>  <Target Type>  (512) 
SINGLE PROTEIN

>  <Document>  (512) 
CHEMBL1201862

>  <Source>  (512) 
PubChem BioAssays

>  <Max Phase>  (512) 
0

>  <#Ro5 Violations>  (512) 
0

>  <Molecular Weight>  (512) 
427.94

>  <Ligand Efficiency BEI>  (512) 
nan

>  <Ligand Efficiency LE>  (512) 
nan

>  <Ligand Efficiency LLE>  (512) 
nan

>  <Ligand Efficiency SEI>  (512) 
nan

>  <ALogP>  (512) 
3.07

>  <Assay Organism>  (512) 
nan

>  <Assay Tissue ChEMBL ID>  (512) 
nan

>  <Assay Tissue Name>  (512) 
nan

>  <Assay Cell Type>  (512) 
nan

>  <Assay Subcellular Fraction>  (512) 
nan

>  <Organism Tax ID>  (512) 
9606

>  <BAO Format ID>  (512) 
BAO_0000019

>  <Published Type>  (512) 
nan

>  <Published Relation>  (512) 
nan

>  <Published Value>  (512) 
nan

>  <Published Units>  (512) 
nan

>  <Canonical Smiles>  (512) 
CN(C)CC(=O)NC1CCC(CC1)Nc2nc(Cl)cc(n2)c3c[nH]c4ncccc34

>  <Data Validity Comment>  (512) 
nan

>  <Document Journal>  (512) 
nan

>  <Document Year>  (512) 
nan

>  <SRC ID>  (512) 
7

>  <UO Units>  (512) 
UO_0000065

>  <Potential Duplicate>  (512) 
False

>  <Class>  (512) 
1

$$$$

     RDKit          2D

 33 37  0  0  0  0  0  0  0  0999 V2000
   -0.7500   -9.0933    0.0000 N   0  0  0  0  0  0  0  0  0  0  0  0
   -1.5000   -7.7942    0.0000 C   0  0  0  0  0  0  0  0  0  0  0  0
   -0.7500   -6.4952    0.0000 C   0  0  0  0  0  0  0  0  0  0  0  0
    0.7500   -6.4952    0.0000 O   0  0  0  0  0  0  0  0  0  0  0  0
    1.5000   -5.1962    0.0000 C   0  0  0  0  0  0  0  0  0  0  0  0
    3.0000   -5.1962    0.0000 C   0  0  0  0  0  0  0  0  0  0  0  0
    3.7500   -3.8971    0.0000 N   0  0  0  0  0  0  0  0  0  0  0  0
    3.0000   -2.5981    0.0000 C   0  0  0  0  0  0  0  0  0  0  0  0
    1.5000   -2.5981    0.0000 C   0  0  0  0  0  0  0  0  0  0  0  0
    0.7500   -3.8971    0.0000 C   0  0  0  0  0  0  0  0  0  0  0  0
    0.7500   -1.2990    0.0000 C   0  0  0  0  0  0  0  0  0  0  0  0
    1.5000    0.0000    0.0000 C   0  0  0  0  0  0  0  0  0  0  0  0
    0.7500    1.2990    0.0000 C   0  0  0  0  0  0  0  0  0  0  0  0
   -0.7500    1.2990    0.0000 C   0  0  0  0  0  0  0  0  0  0  0  0
   -1.7537    2.4138    0.0000 N   0  0  0  0  0  0  0  0  0  0  0  0
   -3.1240    1.8037    0.0000 C   0  0  0  0  0  0  0  0  0  0  0  0
   -4.4231    2.5537    0.0000 O   0  0  0  0  0  0  0  0  0  0  0  0
   -2.9672    0.3119    0.0000 C   0  0  0  0  0  0  0  0  0  0  0  0
   -4.0819   -0.6918    0.0000 C   0  0  0  0  0  0  0  0  0  0  0  0
   -5.5085   -0.2283    0.0000 C   0  0  0  0  0  0  0  0  0  0  0  0
   -6.7220   -1.1100    0.0000 C   0  0  0  0  0  0  0  0  0  0  0  0
   -7.9356   -0.2283    0.0000 C   0  0  0  0  0  0  0  0  0  0  0  0
   -7.4720    1.1983    0.0000 C   0  0  0  0  0  0  0  0  0  0  0  0
   -5.9720    1.1983    0.0000 N   0  0  0  0  0  0  0  0  0  0  0  0
   -1.5000    0.0000    0.0000 C   0  0  0  0  0  0  0  0  0  0  0  0
   -0.7500   -1.2990    0.0000 C   0  0  0  0  0  0  0  0  0  0  0  0
   -3.0000   -7.7942    0.0000 C   0  0  0  0  0  0  0  0  0  0  0  0
   -3.7500   -9.0933    0.0000 C   0  0  0  0  0  0  0  0  0  0  0  0
   -5.2500   -9.0933    0.0000 C   0  0  0  0  0  0  0  0  0  0  0  0
   -6.0000  -10.3923    0.0000 C   0  0  0  0  0  0  0  0  0  0  0  0
   -5.2500  -11.6913    0.0000 C   0  0  0  0  0  0  0  0  0  0  0  0
   -3.7500  -11.6913    0.0000 C   0  0  0  0  0  0  0  0  0  0  0  0
   -3.0000  -10.3923    0.0000 C   0  0  0  0  0  0  0  0  0  0  0  0
  1  2  1  0
  2  3  1  0
  3  4  1  0
  4  5  1  0
  5  6  2  0
  6  7  1  0
  7  8  2  0
  8  9  1  0
  9 10  2  0
  9 11  1  0
 11 12  2  0
 12 13  1  0
 13 14  2  0
 14 15  1  0
 15 16  1  0
 16 17  2  0
 16 18  1  0
 18 19  2  3
 19 20  1  0
 20 21  2  0
 21 22  1  0
 22 23  2  0
 23 24  1  0
 18 25  1  0
 25 26  2  0
  2 27  1  0
 27 28  1  0
 28 29  2  0
 29 30  1  0
 30 31  2  0
 31 32  1  0
 32 33  2  0
 10  5  1  0
 26 11  1  0
 25 14  1  0
 24 20  1  0
 33 28  1  0
M  END
>  <Molecule>  (513) 
CHEMBL1980407

>  <Standard Type>  (513) 
Ki

>  <Standard Relation>  (513) 
=

>  <Standard Value>  (513) 
19.95

>  <Standard Units>  (513) 
nM

>  <pChEMBL Value>  (513) 
7.7

>  <Comment>  (513) 
active

>  <Compound Key>  (513) 
SID103904462

>  <Assay>  (513) 
CHEMBL1963742

>  <Assay Description>  (513) 
PUBCHEM_BIOASSAY: Navigating the Kinome. (Class of assay: other) Panel member name: JAK3

>  <BAO Format>  (513) 
assay format

>  <Target>  (513) 
CHEMBL2148

>  <Target Pref. Name>  (513) 
Tyrosine-protein kinase JAK3

>  <Target Organism>  (513) 
Homo sapiens

>  <Target Type>  (513) 
SINGLE PROTEIN

>  <Document>  (513) 
CHEMBL1201862

>  <Source>  (513) 
PubChem BioAssays

>  <Max Phase>  (513) 
0

>  <#Ro5 Violations>  (513) 
0

>  <Molecular Weight>  (513) 
436.52

>  <Ligand Efficiency BEI>  (513) 
nan

>  <Ligand Efficiency LE>  (513) 
nan

>  <Ligand Efficiency LLE>  (513) 
nan

>  <Ligand Efficiency SEI>  (513) 
nan

>  <ALogP>  (513) 
4.52

>  <Assay Organism>  (513) 
nan

>  <Assay Tissue ChEMBL ID>  (513) 
nan

>  <Assay Tissue Name>  (513) 
nan

>  <Assay Cell Type>  (513) 
nan

>  <Assay Subcellular Fraction>  (513) 
nan

>  <Organism Tax ID>  (513) 
9606

>  <BAO Format ID>  (513) 
BAO_0000019

>  <Published Type>  (513) 
nan

>  <Published Relation>  (513) 
nan

>  <Published Value>  (513) 
nan

>  <Published Units>  (513) 
nan

>  <Canonical Smiles>  (513) 
NC(COc1cncc(c1)c2ccc3NC(=O)C(=Cc4ccc[nH]4)c3c2)Cc5ccccc5

>  <Data Validity Comment>  (513) 
nan

>  <Document Journal>  (513) 
nan

>  <Document Year>  (513) 
nan

>  <SRC ID>  (513) 
7

>  <UO Units>  (513) 
UO_0000065

>  <Potential Duplicate>  (513) 
False

>  <Class>  (513) 
1

$$$$

     RDKit          2D

 24 27  0  0  0  0  0  0  0  0999 V2000
   -7.9018    3.2966    0.0000 N   0  0  0  0  0  0  0  0  0  0  0  0
   -6.7871    2.2929    0.0000 C   0  0  0  0  0  0  0  0  0  0  0  0
   -5.3605    2.7564    0.0000 C   0  0  0  0  0  0  0  0  0  0  0  0
   -4.2458    1.7527    0.0000 C   0  0  0  0  0  0  0  0  0  0  0  0
   -4.5577    0.2855    0.0000 C   0  0  0  0  0  0  0  0  0  0  0  0
   -5.9843   -0.1781    0.0000 C   0  0  0  0  0  0  0  0  0  0  0  0
   -7.0990    0.8256    0.0000 C   0  0  0  0  0  0  0  0  0  0  0  0
   -6.2961   -1.6453    0.0000 N   0  0  0  0  0  0  0  0  0  0  0  0
   -5.1814   -2.6490    0.0000 C   0  0  0  0  0  0  0  0  0  0  0  0
   -5.4933   -4.1162    0.0000 N   0  0  0  0  0  0  0  0  0  0  0  0
   -4.3786   -5.1199    0.0000 C   0  0  0  0  0  0  0  0  0  0  0  0
   -4.6904   -6.5871    0.0000 Cl  0  0  0  0  0  0  0  0  0  0  0  0
   -2.9520   -4.6564    0.0000 C   0  0  0  0  0  0  0  0  0  0  0  0
   -2.6401   -3.1891    0.0000 C   0  0  0  0  0  0  0  0  0  0  0  0
   -3.7548   -2.1855    0.0000 N   0  0  0  0  0  0  0  0  0  0  0  0
   -1.2135   -2.7256    0.0000 C   0  0  0  0  0  0  0  0  0  0  0  0
    0.0000   -3.6073    0.0000 C   0  0  0  0  0  0  0  0  0  0  0  0
    1.2135   -2.7256    0.0000 N   0  0  0  0  0  0  0  0  0  0  0  0
    0.7500   -1.2990    0.0000 C   0  0  0  0  0  0  0  0  0  0  0  0
    1.5000    0.0000    0.0000 N   0  0  0  0  0  0  0  0  0  0  0  0
    0.7500    1.2990    0.0000 C   0  0  0  0  0  0  0  0  0  0  0  0
   -0.7500    1.2990    0.0000 C   0  0  0  0  0  0  0  0  0  0  0  0
   -1.5000    0.0000    0.0000 C   0  0  0  0  0  0  0  0  0  0  0  0
   -0.7500   -1.2990    0.0000 C   0  0  0  0  0  0  0  0  0  0  0  0
  1  2  1  0
  2  3  1  0
  3  4  1  0
  4  5  1  0
  5  6  1  0
  6  7  1  0
  6  8  1  0
  8  9  1  0
  9 10  2  0
 10 11  1  0
 11 12  1  0
 11 13  2  0
 13 14  1  0
 14 15  2  0
 14 16  1  0
 16 17  2  0
 17 18  1  0
 18 19  1  0
 19 20  2  0
 20 21  1  0
 21 22  2  0
 22 23  1  0
 23 24  2  0
  7  2  1  0
 15  9  1  0
 24 16  1  0
 24 19  1  0
M  END
>  <Molecule>  (514) 
CHEMBL1998432

>  <Standard Type>  (514) 
Ki

>  <Standard Relation>  (514) 
=

>  <Standard Value>  (514) 
39.81

>  <Standard Units>  (514) 
nM

>  <pChEMBL Value>  (514) 
7.4

>  <Comment>  (514) 
active

>  <Compound Key>  (514) 
SID103904217

>  <Assay>  (514) 
CHEMBL1963742

>  <Assay Description>  (514) 
PUBCHEM_BIOASSAY: Navigating the Kinome. (Class of assay: other) Panel member name: JAK3

>  <BAO Format>  (514) 
assay format

>  <Target>  (514) 
CHEMBL2148

>  <Target Pref. Name>  (514) 
Tyrosine-protein kinase JAK3

>  <Target Organism>  (514) 
Homo sapiens

>  <Target Type>  (514) 
SINGLE PROTEIN

>  <Document>  (514) 
CHEMBL1201862

>  <Source>  (514) 
PubChem BioAssays

>  <Max Phase>  (514) 
0

>  <#Ro5 Violations>  (514) 
0

>  <Molecular Weight>  (514) 
342.83

>  <Ligand Efficiency BEI>  (514) 
nan

>  <Ligand Efficiency LE>  (514) 
nan

>  <Ligand Efficiency LLE>  (514) 
nan

>  <Ligand Efficiency SEI>  (514) 
nan

>  <ALogP>  (514) 
3.36

>  <Assay Organism>  (514) 
nan

>  <Assay Tissue ChEMBL ID>  (514) 
nan

>  <Assay Tissue Name>  (514) 
nan

>  <Assay Cell Type>  (514) 
nan

>  <Assay Subcellular Fraction>  (514) 
nan

>  <Organism Tax ID>  (514) 
9606

>  <BAO Format ID>  (514) 
BAO_0000019

>  <Published Type>  (514) 
nan

>  <Published Relation>  (514) 
nan

>  <Published Value>  (514) 
nan

>  <Published Units>  (514) 
nan

>  <Canonical Smiles>  (514) 
NC1CCCC(C1)Nc2nc(Cl)cc(n2)c3c[nH]c4ncccc34

>  <Data Validity Comment>  (514) 
nan

>  <Document Journal>  (514) 
nan

>  <Document Year>  (514) 
nan

>  <SRC ID>  (514) 
7

>  <UO Units>  (514) 
UO_0000065

>  <Potential Duplicate>  (514) 
False

>  <Class>  (514) 
1

$$$$

     RDKit          2D

 27 30  0  0  0  0  0  0  0  0999 V2000
   -8.7047    5.7675    0.0000 C   0  0  0  0  0  0  0  0  0  0  0  0
   -7.5900    4.7638    0.0000 C   0  0  0  0  0  0  0  0  0  0  0  0
   -6.1634    5.2273    0.0000 O   0  0  0  0  0  0  0  0  0  0  0  0
   -7.9018    3.2966    0.0000 N   0  0  0  0  0  0  0  0  0  0  0  0
   -6.7871    2.2929    0.0000 C   0  0  0  0  0  0  0  0  0  0  0  0
   -5.3605    2.7564    0.0000 C   0  0  0  0  0  0  0  0  0  0  0  0
   -4.2458    1.7527    0.0000 C   0  0  0  0  0  0  0  0  0  0  0  0
   -4.5577    0.2855    0.0000 C   0  0  0  0  0  0  0  0  0  0  0  0
   -5.9843   -0.1781    0.0000 C   0  0  0  0  0  0  0  0  0  0  0  0
   -7.0990    0.8256    0.0000 C   0  0  0  0  0  0  0  0  0  0  0  0
   -6.2961   -1.6453    0.0000 N   0  0  0  0  0  0  0  0  0  0  0  0
   -5.1814   -2.6490    0.0000 C   0  0  0  0  0  0  0  0  0  0  0  0
   -5.4933   -4.1162    0.0000 N   0  0  0  0  0  0  0  0  0  0  0  0
   -4.3786   -5.1199    0.0000 C   0  0  0  0  0  0  0  0  0  0  0  0
   -4.6904   -6.5871    0.0000 Cl  0  0  0  0  0  0  0  0  0  0  0  0
   -2.9520   -4.6564    0.0000 C   0  0  0  0  0  0  0  0  0  0  0  0
   -2.6401   -3.1891    0.0000 C   0  0  0  0  0  0  0  0  0  0  0  0
   -3.7548   -2.1855    0.0000 N   0  0  0  0  0  0  0  0  0  0  0  0
   -1.2135   -2.7256    0.0000 C   0  0  0  0  0  0  0  0  0  0  0  0
    0.0000   -3.6073    0.0000 C   0  0  0  0  0  0  0  0  0  0  0  0
    1.2135   -2.7256    0.0000 N   0  0  0  0  0  0  0  0  0  0  0  0
    0.7500   -1.2990    0.0000 C   0  0  0  0  0  0  0  0  0  0  0  0
    1.5000    0.0000    0.0000 N   0  0  0  0  0  0  0  0  0  0  0  0
    0.7500    1.2990    0.0000 C   0  0  0  0  0  0  0  0  0  0  0  0
   -0.7500    1.2990    0.0000 C   0  0  0  0  0  0  0  0  0  0  0  0
   -1.5000    0.0000    0.0000 C   0  0  0  0  0  0  0  0  0  0  0  0
   -0.7500   -1.2990    0.0000 C   0  0  0  0  0  0  0  0  0  0  0  0
  1  2  1  0
  2  3  2  0
  2  4  1  0
  4  5  1  0
  5  6  1  0
  6  7  1  0
  7  8  1  0
  8  9  1  0
  9 10  1  0
  9 11  1  0
 11 12  1  0
 12 13  2  0
 13 14  1  0
 14 15  1  0
 14 16  2  0
 16 17  1  0
 17 18  2  0
 17 19  1  0
 19 20  2  0
 20 21  1  0
 21 22  1  0
 22 23  2  0
 23 24  1  0
 24 25  2  0
 25 26  1  0
 26 27  2  0
 10  5  1  0
 18 12  1  0
 27 19  1  0
 27 22  1  0
M  END
>  <Molecule>  (515) 
CHEMBL1980178

>  <Standard Type>  (515) 
Ki

>  <Standard Relation>  (515) 
=

>  <Standard Value>  (515) 
1258.93

>  <Standard Units>  (515) 
nM

>  <pChEMBL Value>  (515) 
5.9

>  <Comment>  (515) 
active

>  <Compound Key>  (515) 
SID103904230

>  <Assay>  (515) 
CHEMBL1963742

>  <Assay Description>  (515) 
PUBCHEM_BIOASSAY: Navigating the Kinome. (Class of assay: other) Panel member name: JAK3

>  <BAO Format>  (515) 
assay format

>  <Target>  (515) 
CHEMBL2148

>  <Target Pref. Name>  (515) 
Tyrosine-protein kinase JAK3

>  <Target Organism>  (515) 
Homo sapiens

>  <Target Type>  (515) 
SINGLE PROTEIN

>  <Document>  (515) 
CHEMBL1201862

>  <Source>  (515) 
PubChem BioAssays

>  <Max Phase>  (515) 
0

>  <#Ro5 Violations>  (515) 
0

>  <Molecular Weight>  (515) 
384.87

>  <Ligand Efficiency BEI>  (515) 
nan

>  <Ligand Efficiency LE>  (515) 
nan

>  <Ligand Efficiency LLE>  (515) 
nan

>  <Ligand Efficiency SEI>  (515) 
nan

>  <ALogP>  (515) 
3.53

>  <Assay Organism>  (515) 
nan

>  <Assay Tissue ChEMBL ID>  (515) 
nan

>  <Assay Tissue Name>  (515) 
nan

>  <Assay Cell Type>  (515) 
nan

>  <Assay Subcellular Fraction>  (515) 
nan

>  <Organism Tax ID>  (515) 
9606

>  <BAO Format ID>  (515) 
BAO_0000019

>  <Published Type>  (515) 
nan

>  <Published Relation>  (515) 
nan

>  <Published Value>  (515) 
nan

>  <Published Units>  (515) 
nan

>  <Canonical Smiles>  (515) 
CC(=O)NC1CCCC(C1)Nc2nc(Cl)cc(n2)c3c[nH]c4ncccc34

>  <Data Validity Comment>  (515) 
nan

>  <Document Journal>  (515) 
nan

>  <Document Year>  (515) 
nan

>  <SRC ID>  (515) 
7

>  <UO Units>  (515) 
UO_0000065

>  <Potential Duplicate>  (515) 
False

>  <Class>  (515) 
1

$$$$

     RDKit          2D

 30 32  0  0  0  0  0  0  0  0999 V2000
    8.2500   -3.8971    0.0000 C   0  0  0  0  0  0  0  0  0  0  0  0
    7.5000   -2.5981    0.0000 N   0  0  0  0  0  0  0  0  0  0  0  0
    8.2500   -1.2990    0.0000 C   0  0  0  0  0  0  0  0  0  0  0  0
    6.0000   -2.5981    0.0000 C   0  0  0  0  0  0  0  0  0  0  0  0
    5.2500   -1.2990    0.0000 C   0  0  0  0  0  0  0  0  0  0  0  0
    6.0000    0.0000    0.0000 O   0  0  0  0  0  0  0  0  0  0  0  0
    3.7500   -1.2990    0.0000 C   0  0  0  0  0  0  0  0  0  0  0  0
    3.0000    0.0000    0.0000 O   0  0  0  0  0  0  0  0  0  0  0  0
    1.5000    0.0000    0.0000 C   0  0  0  0  0  0  0  0  0  0  0  0
    0.7500   -1.2990    0.0000 C   0  0  0  0  0  0  0  0  0  0  0  0
   -0.7500   -1.2990    0.0000 C   0  0  0  0  0  0  0  0  0  0  0  0
   -1.5000    0.0000    0.0000 C   0  0  0  0  0  0  0  0  0  0  0  0
   -3.0000    0.0000    0.0000 N   0  0  0  0  0  0  0  0  0  0  0  0
   -3.7500    1.2990    0.0000 C   0  0  0  0  0  0  0  0  0  0  0  0
   -3.0000    2.5981    0.0000 N   0  0  0  0  0  0  0  0  0  0  0  0
   -3.7500    3.8971    0.0000 C   0  0  0  0  0  0  0  0  0  0  0  0
   -5.2500    3.8971    0.0000 C   0  0  0  0  0  0  0  0  0  0  0  0
   -6.0000    2.5981    0.0000 C   0  0  0  0  0  0  0  0  0  0  0  0
   -7.5000    2.5981    0.0000 N   0  0  0  0  0  0  0  0  0  0  0  0
   -8.2500    3.8971    0.0000 C   0  0  0  0  0  0  0  0  0  0  0  0
   -7.5000    5.1962    0.0000 C   0  0  0  0  0  0  0  0  0  0  0  0
   -8.2500    6.4952    0.0000 C   0  0  0  0  0  0  0  0  0  0  0  0
   -7.5000    7.7942    0.0000 Cl  0  0  0  0  0  0  0  0  0  0  0  0
   -9.7500    6.4952    0.0000 C   0  0  0  0  0  0  0  0  0  0  0  0
  -10.5000    5.1962    0.0000 C   0  0  0  0  0  0  0  0  0  0  0  0
   -9.7500    3.8971    0.0000 C   0  0  0  0  0  0  0  0  0  0  0  0
  -10.5000    2.5981    0.0000 Cl  0  0  0  0  0  0  0  0  0  0  0  0
   -5.2500    1.2990    0.0000 N   0  0  0  0  0  0  0  0  0  0  0  0
   -0.7500    1.2990    0.0000 C   0  0  0  0  0  0  0  0  0  0  0  0
    0.7500    1.2990    0.0000 C   0  0  0  0  0  0  0  0  0  0  0  0
  1  2  1  0
  2  3  1  0
  2  4  1  0
  4  5  1  0
  5  6  1  0
  5  7  1  0
  7  8  1  0
  8  9  1  0
  9 10  2  0
 10 11  1  0
 11 12  2  0
 12 13  1  0
 13 14  1  0
 14 15  2  0
 15 16  1  0
 16 17  2  0
 17 18  1  0
 18 19  1  0
 19 20  1  0
 20 21  2  0
 21 22  1  0
 22 23  1  0
 22 24  2  0
 24 25  1  0
 25 26  2  0
 26 27  1  0
 18 28  2  0
 12 29  1  0
 29 30  2  0
 30  9  1  0
 28 14  1  0
 26 20  1  0
M  END
>  <Molecule>  (516) 
CHEMBL101311

>  <Standard Type>  (516) 
Ki

>  <Standard Relation>  (516) 
=

>  <Standard Value>  (516) 
2511.89

>  <Standard Units>  (516) 
nM

>  <pChEMBL Value>  (516) 
5.6

>  <Comment>  (516) 
active

>  <Compound Key>  (516) 
SID103905214

>  <Assay>  (516) 
CHEMBL1963742

>  <Assay Description>  (516) 
PUBCHEM_BIOASSAY: Navigating the Kinome. (Class of assay: other) Panel member name: JAK3

>  <BAO Format>  (516) 
assay format

>  <Target>  (516) 
CHEMBL2148

>  <Target Pref. Name>  (516) 
Tyrosine-protein kinase JAK3

>  <Target Organism>  (516) 
Homo sapiens

>  <Target Type>  (516) 
SINGLE PROTEIN

>  <Document>  (516) 
CHEMBL1201862

>  <Source>  (516) 
PubChem BioAssays

>  <Max Phase>  (516) 
0

>  <#Ro5 Violations>  (516) 
0

>  <Molecular Weight>  (516) 
448.35

>  <Ligand Efficiency BEI>  (516) 
nan

>  <Ligand Efficiency LE>  (516) 
nan

>  <Ligand Efficiency LLE>  (516) 
nan

>  <Ligand Efficiency SEI>  (516) 
nan

>  <ALogP>  (516) 
4.57

>  <Assay Organism>  (516) 
nan

>  <Assay Tissue ChEMBL ID>  (516) 
nan

>  <Assay Tissue Name>  (516) 
nan

>  <Assay Cell Type>  (516) 
nan

>  <Assay Subcellular Fraction>  (516) 
nan

>  <Organism Tax ID>  (516) 
9606

>  <BAO Format ID>  (516) 
BAO_0000019

>  <Published Type>  (516) 
nan

>  <Published Relation>  (516) 
nan

>  <Published Value>  (516) 
nan

>  <Published Units>  (516) 
nan

>  <Canonical Smiles>  (516) 
CN(C)CC(O)COc1ccc(Nc2nccc(Nc3cc(Cl)ccc3Cl)n2)cc1

>  <Data Validity Comment>  (516) 
nan

>  <Document Journal>  (516) 
nan

>  <Document Year>  (516) 
nan

>  <SRC ID>  (516) 
7

>  <UO Units>  (516) 
UO_0000065

>  <Potential Duplicate>  (516) 
False

>  <Class>  (516) 
1

$$$$

     RDKit          2D

 17 18  0  0  0  0  0  0  0  0999 V2000
    3.7500   -6.4952    0.0000 C   0  0  0  0  0  0  0  0  0  0  0  0
    3.0000   -5.1962    0.0000 C   0  0  0  0  0  0  0  0  0  0  0  0
    3.7500   -3.8971    0.0000 O   0  0  0  0  0  0  0  0  0  0  0  0
    3.0000   -2.5981    0.0000 C   0  0  0  0  0  0  0  0  0  0  0  0
    3.7500   -1.2990    0.0000 C   0  0  0  0  0  0  0  0  0  0  0  0
    5.2500   -1.2990    0.0000 C   0  0  0  0  0  0  0  0  0  0  0  0
    3.0000    0.0000    0.0000 O   0  0  0  0  0  0  0  0  0  0  0  0
    1.5000    0.0000    0.0000 C   0  0  0  0  0  0  0  0  0  0  0  0
    0.7500   -1.2990    0.0000 C   0  0  0  0  0  0  0  0  0  0  0  0
   -0.7500   -1.2990    0.0000 C   0  0  0  0  0  0  0  0  0  0  0  0
   -1.5000    0.0000    0.0000 C   0  0  0  0  0  0  0  0  0  0  0  0
   -0.7500    1.2990    0.0000 C   0  0  0  0  0  0  0  0  0  0  0  0
   -1.2135    2.7256    0.0000 N   0  0  0  0  0  0  0  0  0  0  0  0
   -0.0000    3.6073    0.0000 N   0  0  0  0  0  0  0  0  0  0  0  0
    1.2135    2.7256    0.0000 C   0  0  0  0  0  0  0  0  0  0  0  0
    2.6401    3.1891    0.0000 N   0  0  0  0  0  0  0  0  0  0  0  0
    0.7500    1.2990    0.0000 C   0  0  0  0  0  0  0  0  0  0  0  0
  1  2  1  0
  2  3  1  0
  3  4  1  0
  4  5  1  0
  5  6  1  0
  5  7  1  0
  7  8  1  0
  8  9  2  0
  9 10  1  0
 10 11  2  0
 11 12  1  0
 12 13  1  0
 13 14  1  0
 14 15  2  0
 15 16  1  0
 15 17  1  0
 17  8  1  0
 17 12  2  0
M  END
>  <Molecule>  (517) 
CHEMBL2002736

>  <Standard Type>  (517) 
Ki

>  <Standard Relation>  (517) 
>

>  <Standard Value>  (517) 
5011.87

>  <Standard Units>  (517) 
nM

>  <pChEMBL Value>  (517) 
nan

>  <Comment>  (517) 
inactive

>  <Compound Key>  (517) 
SID103905037

>  <Assay>  (517) 
CHEMBL1963742

>  <Assay Description>  (517) 
PUBCHEM_BIOASSAY: Navigating the Kinome. (Class of assay: other) Panel member name: JAK3

>  <BAO Format>  (517) 
assay format

>  <Target>  (517) 
CHEMBL2148

>  <Target Pref. Name>  (517) 
Tyrosine-protein kinase JAK3

>  <Target Organism>  (517) 
Homo sapiens

>  <Target Type>  (517) 
SINGLE PROTEIN

>  <Document>  (517) 
CHEMBL1201862

>  <Source>  (517) 
PubChem BioAssays

>  <Max Phase>  (517) 
0

>  <#Ro5 Violations>  (517) 
0

>  <Molecular Weight>  (517) 
235.29

>  <Ligand Efficiency BEI>  (517) 
nan

>  <Ligand Efficiency LE>  (517) 
nan

>  <Ligand Efficiency LLE>  (517) 
nan

>  <Ligand Efficiency SEI>  (517) 
nan

>  <ALogP>  (517) 
1.95

>  <Assay Organism>  (517) 
nan

>  <Assay Tissue ChEMBL ID>  (517) 
nan

>  <Assay Tissue Name>  (517) 
nan

>  <Assay Cell Type>  (517) 
nan

>  <Assay Subcellular Fraction>  (517) 
nan

>  <Organism Tax ID>  (517) 
9606

>  <BAO Format ID>  (517) 
BAO_0000019

>  <Published Type>  (517) 
nan

>  <Published Relation>  (517) 
nan

>  <Published Value>  (517) 
nan

>  <Published Units>  (517) 
nan

>  <Canonical Smiles>  (517) 
CCOCC(C)Oc1cccc2[nH]nc(N)c12

>  <Data Validity Comment>  (517) 
nan

>  <Document Journal>  (517) 
nan

>  <Document Year>  (517) 
nan

>  <SRC ID>  (517) 
7

>  <UO Units>  (517) 
UO_0000065

>  <Potential Duplicate>  (517) 
False

>  <Class>  (517) 
0

$$$$

     RDKit          2D

 30 34  0  0  0  0  0  0  0  0999 V2000
   -1.4848   -4.9682    0.0000 C   0  0  0  0  0  0  0  0  0  0  0  0
   -2.9520   -4.6564    0.0000 C   0  0  0  0  0  0  0  0  0  0  0  0
   -4.4192   -4.3445    0.0000 C   0  0  0  0  0  0  0  0  0  0  0  0
   -3.2638   -6.1236    0.0000 O   0  0  0  0  0  0  0  0  0  0  0  0
   -2.6401   -3.1891    0.0000 C   0  0  0  0  0  0  0  0  0  0  0  0
   -1.2135   -2.7256    0.0000 C   0  0  0  0  0  0  0  0  0  0  0  0
   -0.0000   -3.6073    0.0000 N   0  0  0  0  0  0  0  0  0  0  0  0
    1.2135   -2.7256    0.0000 N   0  0  0  0  0  0  0  0  0  0  0  0
    0.7500   -1.2990    0.0000 C   0  0  0  0  0  0  0  0  0  0  0  0
    1.5000    0.0000    0.0000 C   0  0  0  0  0  0  0  0  0  0  0  0
    0.7500    1.2990    0.0000 C   0  0  0  0  0  0  0  0  0  0  0  0
   -0.7500    1.2990    0.0000 C   0  0  0  0  0  0  0  0  0  0  0  0
   -1.5000    0.0000    0.0000 N   0  0  0  0  0  0  0  0  0  0  0  0
   -0.7500   -1.2990    0.0000 N   0  0  0  0  0  0  0  0  0  0  0  0
   -1.5000    2.5981    0.0000 C   0  0  0  0  0  0  0  0  0  0  0  0
   -2.9918    2.7549    0.0000 C   0  0  0  0  0  0  0  0  0  0  0  0
   -3.3037    4.2221    0.0000 N   0  0  0  0  0  0  0  0  0  0  0  0
   -2.0046    4.9721    0.0000 C   0  0  0  0  0  0  0  0  0  0  0  0
   -1.3945    6.3424    0.0000 O   0  0  0  0  0  0  0  0  0  0  0  0
    0.0973    6.1856    0.0000 C   0  0  0  0  0  0  0  0  0  0  0  0
    0.4091    4.7184    0.0000 C   0  0  0  0  0  0  0  0  0  0  0  0
   -0.8899    3.9684    0.0000 N   0  0  0  0  0  0  0  0  0  0  0  0
   -3.9955    1.6402    0.0000 C   0  0  0  0  0  0  0  0  0  0  0  0
   -3.5320    0.2136    0.0000 C   0  0  0  0  0  0  0  0  0  0  0  0
   -4.5356   -0.9012    0.0000 C   0  0  0  0  0  0  0  0  0  0  0  0
   -6.0029   -0.5893    0.0000 C   0  0  0  0  0  0  0  0  0  0  0  0
   -7.0066   -1.7040    0.0000 F   0  0  0  0  0  0  0  0  0  0  0  0
   -6.4664    0.8373    0.0000 C   0  0  0  0  0  0  0  0  0  0  0  0
   -5.4627    1.9520    0.0000 C   0  0  0  0  0  0  0  0  0  0  0  0
   -5.9262    3.3786    0.0000 F   0  0  0  0  0  0  0  0  0  0  0  0
  1  2  1  0
  2  3  1  0
  2  4  1  0
  2  5  1  0
  5  6  1  0
  6  7  2  0
  7  8  1  0
  8  9  2  0
  9 10  1  0
 10 11  2  0
 11 12  1  0
 12 13  2  0
 13 14  1  0
 12 15  1  0
 15 16  2  0
 16 17  1  0
 17 18  2  0
 18 19  1  0
 19 20  1  0
 20 21  2  0
 21 22  1  0
 16 23  1  0
 23 24  2  0
 24 25  1  0
 25 26  2  0
 26 27  1  0
 26 28  1  0
 28 29  2  0
 29 30  1  0
 14  6  1  0
 14  9  1  0
 22 15  1  0
 22 18  1  0
 29 23  1  0
M  END
>  <Molecule>  (518) 
CHEMBL1976732

>  <Standard Type>  (518) 
Ki

>  <Standard Relation>  (518) 
>

>  <Standard Value>  (518) 
1584.89

>  <Standard Units>  (518) 
nM

>  <pChEMBL Value>  (518) 
nan

>  <Comment>  (518) 
inactive

>  <Compound Key>  (518) 
SID103905067

>  <Assay>  (518) 
CHEMBL1963742

>  <Assay Description>  (518) 
PUBCHEM_BIOASSAY: Navigating the Kinome. (Class of assay: other) Panel member name: JAK3

>  <BAO Format>  (518) 
assay format

>  <Target>  (518) 
CHEMBL2148

>  <Target Pref. Name>  (518) 
Tyrosine-protein kinase JAK3

>  <Target Organism>  (518) 
Homo sapiens

>  <Target Type>  (518) 
SINGLE PROTEIN

>  <Document>  (518) 
CHEMBL1201862

>  <Source>  (518) 
PubChem BioAssays

>  <Max Phase>  (518) 
0

>  <#Ro5 Violations>  (518) 
0

>  <Molecular Weight>  (518) 
410.38

>  <Ligand Efficiency BEI>  (518) 
nan

>  <Ligand Efficiency LE>  (518) 
nan

>  <Ligand Efficiency LLE>  (518) 
nan

>  <Ligand Efficiency SEI>  (518) 
nan

>  <ALogP>  (518) 
3.29

>  <Assay Organism>  (518) 
nan

>  <Assay Tissue ChEMBL ID>  (518) 
nan

>  <Assay Tissue Name>  (518) 
nan

>  <Assay Cell Type>  (518) 
nan

>  <Assay Subcellular Fraction>  (518) 
nan

>  <Organism Tax ID>  (518) 
9606

>  <BAO Format ID>  (518) 
BAO_0000019

>  <Published Type>  (518) 
nan

>  <Published Relation>  (518) 
nan

>  <Published Value>  (518) 
nan

>  <Published Units>  (518) 
nan

>  <Canonical Smiles>  (518) 
CC(C)(O)Cc1nnc2ccc(nn12)c3c(nc4occn34)c5ccc(F)cc5F

>  <Data Validity Comment>  (518) 
nan

>  <Document Journal>  (518) 
nan

>  <Document Year>  (518) 
nan

>  <SRC ID>  (518) 
7

>  <UO Units>  (518) 
UO_0000065

>  <Potential Duplicate>  (518) 
False

>  <Class>  (518) 
0

$$$$

     RDKit          2D

 35 38  0  0  0  0  0  0  0  0999 V2000
   -3.9150   -6.5465    0.0000 C   0  0  0  0  0  0  0  0  0  0  0  0
   -4.3786   -5.1199    0.0000 C   0  0  0  0  0  0  0  0  0  0  0  0
   -4.8421   -3.6933    0.0000 C   0  0  0  0  0  0  0  0  0  0  0  0
   -5.8051   -5.5834    0.0000 C   0  0  0  0  0  0  0  0  0  0  0  0
   -2.9520   -4.6564    0.0000 O   0  0  0  0  0  0  0  0  0  0  0  0
   -2.6401   -3.1891    0.0000 C   0  0  0  0  0  0  0  0  0  0  0  0
   -3.7548   -2.1855    0.0000 O   0  0  0  0  0  0  0  0  0  0  0  0
   -1.2135   -2.7256    0.0000 N   0  0  0  0  0  0  0  0  0  0  0  0
   -0.0000   -3.6073    0.0000 N   0  0  0  0  0  0  0  0  0  0  0  0
    1.2135   -2.7256    0.0000 C   0  0  0  0  0  0  0  0  0  0  0  0
    0.7500   -1.2990    0.0000 C   0  0  0  0  0  0  0  0  0  0  0  0
    1.5000    0.0000    0.0000 C   0  0  0  0  0  0  0  0  0  0  0  0
    0.7500    1.2990    0.0000 C   0  0  0  0  0  0  0  0  0  0  0  0
    1.5000    2.5981    0.0000 N   0  0  0  0  0  0  0  0  0  0  0  0
    3.0000    2.5981    0.0000 C   0  0  0  0  0  0  0  0  0  0  0  0
    4.0607    1.5374    0.0000 C   0  0  0  0  0  0  0  0  0  0  0  0
    4.0607    0.0374    0.0000 N   0  0  0  0  0  0  0  0  0  0  0  0
    5.3597   -0.7126    0.0000 C   0  0  0  0  0  0  0  0  0  0  0  0
    5.3597   -2.2126    0.0000 C   0  0  0  0  0  0  0  0  0  0  0  0
    4.0607   -2.9626    0.0000 C   0  0  0  0  0  0  0  0  0  0  0  0
    4.0607   -4.4626    0.0000 C   0  0  0  0  0  0  0  0  0  0  0  0
    5.3597   -5.2126    0.0000 C   0  0  0  0  0  0  0  0  0  0  0  0
    6.6587   -4.4626    0.0000 C   0  0  0  0  0  0  0  0  0  0  0  0
    6.6587   -2.9626    0.0000 C   0  0  0  0  0  0  0  0  0  0  0  0
    5.3597   -6.7126    0.0000 S   0  0  0  0  0  0  0  0  0  0  0  0
    3.8597   -6.7126    0.0000 O   0  0  0  0  0  0  0  0  0  0  0  0
    6.8597   -6.7126    0.0000 O   0  0  0  0  0  0  0  0  0  0  0  0
    5.3597   -8.2126    0.0000 N   0  0  0  0  0  0  0  0  0  0  0  0
    5.1213    2.5981    0.0000 C   0  0  0  0  0  0  0  0  0  0  0  0
    6.6213    2.5981    0.0000 O   0  0  0  0  0  0  0  0  0  0  0  0
    4.0607    3.6587    0.0000 C   0  0  0  0  0  0  0  0  0  0  0  0
    4.0607    5.1587    0.0000 O   0  0  0  0  0  0  0  0  0  0  0  0
   -0.7500    1.2990    0.0000 C   0  0  0  0  0  0  0  0  0  0  0  0
   -1.5000    0.0000    0.0000 C   0  0  0  0  0  0  0  0  0  0  0  0
   -0.7500   -1.2990    0.0000 C   0  0  0  0  0  0  0  0  0  0  0  0
  1  2  1  0
  2  3  1  0
  2  4  1  0
  2  5  1  0
  5  6  1  0
  6  7  2  0
  6  8  1  0
  8  9  1  0
  9 10  2  0
 10 11  1  0
 11 12  2  0
 12 13  1  0
 13 14  1  0
 14 15  1  0
 15 16  2  0
 16 17  1  0
 17 18  1  0
 18 19  1  0
 19 20  2  0
 20 21  1  0
 21 22  2  0
 22 23  1  0
 23 24  2  0
 22 25  1  0
 25 26  2  0
 25 27  2  0
 25 28  1  0
 16 29  1  0
 29 30  2  0
 29 31  1  0
 31 32  2  0
 13 33  2  0
 33 34  1  0
 34 35  2  0
 35  8  1  0
 35 11  1  0
 31 15  1  0
 24 19  1  0
M  END
>  <Molecule>  (519) 
CHEMBL1969506

>  <Standard Type>  (519) 
Ki

>  <Standard Relation>  (519) 
>

>  <Standard Value>  (519) 
1584.89

>  <Standard Units>  (519) 
nM

>  <pChEMBL Value>  (519) 
nan

>  <Comment>  (519) 
inactive

>  <Compound Key>  (519) 
SID103905267

>  <Assay>  (519) 
CHEMBL1963742

>  <Assay Description>  (519) 
PUBCHEM_BIOASSAY: Navigating the Kinome. (Class of assay: other) Panel member name: JAK3

>  <BAO Format>  (519) 
assay format

>  <Target>  (519) 
CHEMBL2148

>  <Target Pref. Name>  (519) 
Tyrosine-protein kinase JAK3

>  <Target Organism>  (519) 
Homo sapiens

>  <Target Type>  (519) 
SINGLE PROTEIN

>  <Document>  (519) 
CHEMBL1201862

>  <Source>  (519) 
PubChem BioAssays

>  <Max Phase>  (519) 
0

>  <#Ro5 Violations>  (519) 
0

>  <Molecular Weight>  (519) 
497.53

>  <Ligand Efficiency BEI>  (519) 
nan

>  <Ligand Efficiency LE>  (519) 
nan

>  <Ligand Efficiency LLE>  (519) 
nan

>  <Ligand Efficiency SEI>  (519) 
nan

>  <ALogP>  (519) 
2.42

>  <Assay Organism>  (519) 
nan

>  <Assay Tissue ChEMBL ID>  (519) 
nan

>  <Assay Tissue Name>  (519) 
nan

>  <Assay Cell Type>  (519) 
nan

>  <Assay Subcellular Fraction>  (519) 
nan

>  <Organism Tax ID>  (519) 
9606

>  <BAO Format ID>  (519) 
BAO_0000019

>  <Published Type>  (519) 
nan

>  <Published Relation>  (519) 
nan

>  <Published Value>  (519) 
nan

>  <Published Units>  (519) 
nan

>  <Canonical Smiles>  (519) 
CC(C)(C)OC(=O)n1ncc2cc(NC3=C(NCc4ccc(cc4)S(=O)(=O)N)C(=O)C3=O)ccc12

>  <Data Validity Comment>  (519) 
nan

>  <Document Journal>  (519) 
nan

>  <Document Year>  (519) 
nan

>  <SRC ID>  (519) 
7

>  <UO Units>  (519) 
UO_0000065

>  <Potential Duplicate>  (519) 
False

>  <Class>  (519) 
0

$$$$

     RDKit          2D

 20 22  0  0  0  0  0  0  0  0999 V2000
    6.0000   -2.5981    0.0000 O   0  0  0  0  0  0  0  0  0  0  0  0
    5.2500   -1.2990    0.0000 C   0  0  0  0  0  0  0  0  0  0  0  0
    3.7500   -1.2990    0.0000 C   0  0  0  0  0  0  0  0  0  0  0  0
    3.0000    0.0000    0.0000 N   0  0  0  0  0  0  0  0  0  0  0  0
    1.5000    0.0000    0.0000 C   0  0  0  0  0  0  0  0  0  0  0  0
    0.7500   -1.2990    0.0000 C   0  0  0  0  0  0  0  0  0  0  0  0
   -0.7500   -1.2990    0.0000 C   0  0  0  0  0  0  0  0  0  0  0  0
   -1.5000   -2.5981    0.0000 C   0  0  0  0  0  0  0  0  0  0  0  0
   -3.0000   -2.5981    0.0000 C   0  0  0  0  0  0  0  0  0  0  0  0
   -3.7500   -1.2990    0.0000 C   0  0  0  0  0  0  0  0  0  0  0  0
   -3.0000    0.0000    0.0000 C   0  0  0  0  0  0  0  0  0  0  0  0
   -1.5000    0.0000    0.0000 C   0  0  0  0  0  0  0  0  0  0  0  0
   -0.7500    1.2990    0.0000 C   0  0  0  0  0  0  0  0  0  0  0  0
    0.7500    1.2990    0.0000 N   0  0  0  0  0  0  0  0  0  0  0  0
   -3.7500   -3.8971    0.0000 C   0  0  0  0  0  0  0  0  0  0  0  0
   -5.2500   -3.8971    0.0000 C   0  0  0  0  0  0  0  0  0  0  0  0
   -6.0000   -5.1962    0.0000 C   0  0  0  0  0  0  0  0  0  0  0  0
   -5.2500   -6.4952    0.0000 C   0  0  0  0  0  0  0  0  0  0  0  0
   -3.7500   -6.4952    0.0000 N   0  0  0  0  0  0  0  0  0  0  0  0
   -3.0000   -5.1962    0.0000 C   0  0  0  0  0  0  0  0  0  0  0  0
  1  2  1  0
  2  3  1  0
  3  4  1  0
  4  5  1  0
  5  6  2  0
  6  7  1  0
  7  8  2  0
  8  9  1  0
  9 10  2  0
 10 11  1  0
 11 12  2  0
 12 13  1  0
 13 14  2  0
  9 15  1  0
 15 16  2  0
 16 17  1  0
 17 18  2  0
 18 19  1  0
 19 20  2  0
 14  5  1  0
 12  7  1  0
 20 15  1  0
M  END
>  <Molecule>  (520) 
CHEMBL1990912

>  <Standard Type>  (520) 
Ki

>  <Standard Relation>  (520) 
>

>  <Standard Value>  (520) 
1584.89

>  <Standard Units>  (520) 
nM

>  <pChEMBL Value>  (520) 
nan

>  <Comment>  (520) 
inactive

>  <Compound Key>  (520) 
SID103904736

>  <Assay>  (520) 
CHEMBL1963742

>  <Assay Description>  (520) 
PUBCHEM_BIOASSAY: Navigating the Kinome. (Class of assay: other) Panel member name: JAK3

>  <BAO Format>  (520) 
assay format

>  <Target>  (520) 
CHEMBL2148

>  <Target Pref. Name>  (520) 
Tyrosine-protein kinase JAK3

>  <Target Organism>  (520) 
Homo sapiens

>  <Target Type>  (520) 
SINGLE PROTEIN

>  <Document>  (520) 
CHEMBL1201862

>  <Source>  (520) 
PubChem BioAssays

>  <Max Phase>  (520) 
0

>  <#Ro5 Violations>  (520) 
0

>  <Molecular Weight>  (520) 
265.32

>  <Ligand Efficiency BEI>  (520) 
nan

>  <Ligand Efficiency LE>  (520) 
nan

>  <Ligand Efficiency LLE>  (520) 
nan

>  <Ligand Efficiency SEI>  (520) 
nan

>  <ALogP>  (520) 
2.7

>  <Assay Organism>  (520) 
nan

>  <Assay Tissue ChEMBL ID>  (520) 
nan

>  <Assay Tissue Name>  (520) 
nan

>  <Assay Cell Type>  (520) 
nan

>  <Assay Subcellular Fraction>  (520) 
nan

>  <Organism Tax ID>  (520) 
9606

>  <BAO Format ID>  (520) 
BAO_0000019

>  <Published Type>  (520) 
nan

>  <Published Relation>  (520) 
nan

>  <Published Value>  (520) 
nan

>  <Published Units>  (520) 
nan

>  <Canonical Smiles>  (520) 
OCCNc1cc2cc(ccc2cn1)c3cccnc3

>  <Data Validity Comment>  (520) 
nan

>  <Document Journal>  (520) 
nan

>  <Document Year>  (520) 
nan

>  <SRC ID>  (520) 
7

>  <UO Units>  (520) 
UO_0000065

>  <Potential Duplicate>  (520) 
False

>  <Class>  (520) 
0

$$$$

     RDKit          2D

 21 23  0  0  0  0  0  0  0  0999 V2000
    7.0211   -9.6517    0.0000 C   0  0  0  0  0  0  0  0  0  0  0  0
    5.7221   -8.9017    0.0000 C   0  0  0  0  0  0  0  0  0  0  0  0
    5.7221   -7.4017    0.0000 O   0  0  0  0  0  0  0  0  0  0  0  0
    4.4231   -6.6517    0.0000 C   0  0  0  0  0  0  0  0  0  0  0  0
    3.1240   -7.4017    0.0000 O   0  0  0  0  0  0  0  0  0  0  0  0
    4.4231   -5.1517    0.0000 C   0  0  0  0  0  0  0  0  0  0  0  0
    3.1240   -4.4017    0.0000 C   0  0  0  0  0  0  0  0  0  0  0  0
    2.9672   -2.9099    0.0000 N   0  0  0  0  0  0  0  0  0  0  0  0
    1.5000   -2.5981    0.0000 C   0  0  0  0  0  0  0  0  0  0  0  0
    0.7500   -1.2990    0.0000 C   0  0  0  0  0  0  0  0  0  0  0  0
    1.5000    0.0000    0.0000 C   0  0  0  0  0  0  0  0  0  0  0  0
    0.7500    1.2990    0.0000 C   0  0  0  0  0  0  0  0  0  0  0  0
    1.5000    2.5981    0.0000 Br  0  0  0  0  0  0  0  0  0  0  0  0
   -0.7500    1.2990    0.0000 C   0  0  0  0  0  0  0  0  0  0  0  0
   -1.5000    0.0000    0.0000 C   0  0  0  0  0  0  0  0  0  0  0  0
   -0.7500   -1.2990    0.0000 C   0  0  0  0  0  0  0  0  0  0  0  0
   -1.5000   -2.5981    0.0000 N   0  0  0  0  0  0  0  0  0  0  0  0
   -0.7500   -3.8971    0.0000 C   0  0  0  0  0  0  0  0  0  0  0  0
   -1.5000   -5.1962    0.0000 O   0  0  0  0  0  0  0  0  0  0  0  0
    0.7500   -3.8971    0.0000 N   0  0  0  0  0  0  0  0  0  0  0  0
    1.7537   -5.0118    0.0000 N   0  0  0  0  0  0  0  0  0  0  0  0
  1  2  1  0
  2  3  1  0
  3  4  1  0
  4  5  2  0
  4  6  1  0
  6  7  1  0
  7  8  1  0
  8  9  2  0
  9 10  1  0
 10 11  2  0
 11 12  1  0
 12 13  1  0
 12 14  2  0
 14 15  1  0
 15 16  2  0
 16 17  1  0
 17 18  1  0
 18 19  2  0
 18 20  1  0
 20 21  1  0
 21  7  2  0
 20  9  1  0
 16 10  1  0
M  END
>  <Molecule>  (521) 
CHEMBL1974480

>  <Standard Type>  (521) 
Ki

>  <Standard Relation>  (521) 
=

>  <Standard Value>  (521) 
3162.28

>  <Standard Units>  (521) 
nM

>  <pChEMBL Value>  (521) 
5.5

>  <Comment>  (521) 
active

>  <Compound Key>  (521) 
SID103904977

>  <Assay>  (521) 
CHEMBL1963742

>  <Assay Description>  (521) 
PUBCHEM_BIOASSAY: Navigating the Kinome. (Class of assay: other) Panel member name: JAK3

>  <BAO Format>  (521) 
assay format

>  <Target>  (521) 
CHEMBL2148

>  <Target Pref. Name>  (521) 
Tyrosine-protein kinase JAK3

>  <Target Organism>  (521) 
Homo sapiens

>  <Target Type>  (521) 
SINGLE PROTEIN

>  <Document>  (521) 
CHEMBL1201862

>  <Source>  (521) 
PubChem BioAssays

>  <Max Phase>  (521) 
0

>  <#Ro5 Violations>  (521) 
0

>  <Molecular Weight>  (521) 
351.16

>  <Ligand Efficiency BEI>  (521) 
nan

>  <Ligand Efficiency LE>  (521) 
nan

>  <Ligand Efficiency LLE>  (521) 
nan

>  <Ligand Efficiency SEI>  (521) 
nan

>  <ALogP>  (521) 
1.44

>  <Assay Organism>  (521) 
nan

>  <Assay Tissue ChEMBL ID>  (521) 
nan

>  <Assay Tissue Name>  (521) 
nan

>  <Assay Cell Type>  (521) 
nan

>  <Assay Subcellular Fraction>  (521) 
nan

>  <Organism Tax ID>  (521) 
9606

>  <BAO Format ID>  (521) 
BAO_0000019

>  <Published Type>  (521) 
nan

>  <Published Relation>  (521) 
nan

>  <Published Value>  (521) 
nan

>  <Published Units>  (521) 
nan

>  <Canonical Smiles>  (521) 
CCOC(=O)Cc1nc2c3cc(Br)ccc3NC(=O)n2n1

>  <Data Validity Comment>  (521) 
nan

>  <Document Journal>  (521) 
nan

>  <Document Year>  (521) 
nan

>  <SRC ID>  (521) 
7

>  <UO Units>  (521) 
UO_0000065

>  <Potential Duplicate>  (521) 
False

>  <Class>  (521) 
1

$$$$

     RDKit          2D

 33 36  0  0  0  0  0  0  0  0999 V2000
   -3.9150   -6.5465    0.0000 C   0  0  0  0  0  0  0  0  0  0  0  0
   -4.3786   -5.1199    0.0000 C   0  0  0  0  0  0  0  0  0  0  0  0
   -4.8421   -3.6933    0.0000 C   0  0  0  0  0  0  0  0  0  0  0  0
   -5.8051   -5.5834    0.0000 C   0  0  0  0  0  0  0  0  0  0  0  0
   -2.9520   -4.6564    0.0000 O   0  0  0  0  0  0  0  0  0  0  0  0
   -2.6401   -3.1891    0.0000 C   0  0  0  0  0  0  0  0  0  0  0  0
   -3.7548   -2.1855    0.0000 O   0  0  0  0  0  0  0  0  0  0  0  0
   -1.2135   -2.7256    0.0000 N   0  0  0  0  0  0  0  0  0  0  0  0
   -0.0000   -3.6073    0.0000 N   0  0  0  0  0  0  0  0  0  0  0  0
    1.2135   -2.7256    0.0000 C   0  0  0  0  0  0  0  0  0  0  0  0
    0.7500   -1.2990    0.0000 C   0  0  0  0  0  0  0  0  0  0  0  0
    1.5000    0.0000    0.0000 C   0  0  0  0  0  0  0  0  0  0  0  0
    0.7500    1.2990    0.0000 C   0  0  0  0  0  0  0  0  0  0  0  0
    1.5000    2.5981    0.0000 N   0  0  0  0  0  0  0  0  0  0  0  0
    3.0000    2.5981    0.0000 C   0  0  0  0  0  0  0  0  0  0  0  0
    4.0607    1.5374    0.0000 C   0  0  0  0  0  0  0  0  0  0  0  0
    4.0607    0.0374    0.0000 N   0  0  0  0  0  0  0  0  0  0  0  0
    5.3597   -0.7126    0.0000 C   0  0  0  0  0  0  0  0  0  0  0  0
    5.3597   -2.2126    0.0000 C   0  0  0  0  0  0  0  0  0  0  0  0
    4.0607   -2.9626    0.0000 C   0  0  0  0  0  0  0  0  0  0  0  0
    4.0607   -4.4626    0.0000 C   0  0  0  0  0  0  0  0  0  0  0  0
    5.3597   -5.2126    0.0000 C   0  0  0  0  0  0  0  0  0  0  0  0
    5.3597   -6.7126    0.0000 Cl  0  0  0  0  0  0  0  0  0  0  0  0
    6.6587   -4.4626    0.0000 C   0  0  0  0  0  0  0  0  0  0  0  0
    6.6587   -2.9626    0.0000 C   0  0  0  0  0  0  0  0  0  0  0  0
    7.9578   -2.2126    0.0000 Cl  0  0  0  0  0  0  0  0  0  0  0  0
    5.1213    2.5981    0.0000 C   0  0  0  0  0  0  0  0  0  0  0  0
    6.6213    2.5981    0.0000 O   0  0  0  0  0  0  0  0  0  0  0  0
    4.0607    3.6587    0.0000 C   0  0  0  0  0  0  0  0  0  0  0  0
    4.0607    5.1587    0.0000 O   0  0  0  0  0  0  0  0  0  0  0  0
   -0.7500    1.2990    0.0000 C   0  0  0  0  0  0  0  0  0  0  0  0
   -1.5000    0.0000    0.0000 C   0  0  0  0  0  0  0  0  0  0  0  0
   -0.7500   -1.2990    0.0000 C   0  0  0  0  0  0  0  0  0  0  0  0
  1  2  1  0
  2  3  1  0
  2  4  1  0
  2  5  1  0
  5  6  1  0
  6  7  2  0
  6  8  1  0
  8  9  1  0
  9 10  2  0
 10 11  1  0
 11 12  2  0
 12 13  1  0
 13 14  1  0
 14 15  1  0
 15 16  2  0
 16 17  1  0
 17 18  1  0
 18 19  1  0
 19 20  2  0
 20 21  1  0
 21 22  2  0
 22 23  1  0
 22 24  1  0
 24 25  2  0
 25 26  1  0
 16 27  1  0
 27 28  2  0
 27 29  1  0
 29 30  2  0
 13 31  2  0
 31 32  1  0
 32 33  2  0
 33  8  1  0
 33 11  1  0
 29 15  1  0
 25 19  1  0
M  END
>  <Molecule>  (522) 
CHEMBL2005548

>  <Standard Type>  (522) 
Ki

>  <Standard Relation>  (522) 
>

>  <Standard Value>  (522) 
1584.89

>  <Standard Units>  (522) 
nM

>  <pChEMBL Value>  (522) 
nan

>  <Comment>  (522) 
inactive

>  <Compound Key>  (522) 
SID103905266

>  <Assay>  (522) 
CHEMBL1963742

>  <Assay Description>  (522) 
PUBCHEM_BIOASSAY: Navigating the Kinome. (Class of assay: other) Panel member name: JAK3

>  <BAO Format>  (522) 
assay format

>  <Target>  (522) 
CHEMBL2148

>  <Target Pref. Name>  (522) 
Tyrosine-protein kinase JAK3

>  <Target Organism>  (522) 
Homo sapiens

>  <Target Type>  (522) 
SINGLE PROTEIN

>  <Document>  (522) 
CHEMBL1201862

>  <Source>  (522) 
PubChem BioAssays

>  <Max Phase>  (522) 
0

>  <#Ro5 Violations>  (522) 
1

>  <Molecular Weight>  (522) 
487.34

>  <Ligand Efficiency BEI>  (522) 
nan

>  <Ligand Efficiency LE>  (522) 
nan

>  <Ligand Efficiency LLE>  (522) 
nan

>  <Ligand Efficiency SEI>  (522) 
nan

>  <ALogP>  (522) 
5.08

>  <Assay Organism>  (522) 
nan

>  <Assay Tissue ChEMBL ID>  (522) 
nan

>  <Assay Tissue Name>  (522) 
nan

>  <Assay Cell Type>  (522) 
nan

>  <Assay Subcellular Fraction>  (522) 
nan

>  <Organism Tax ID>  (522) 
9606

>  <BAO Format ID>  (522) 
BAO_0000019

>  <Published Type>  (522) 
nan

>  <Published Relation>  (522) 
nan

>  <Published Value>  (522) 
nan

>  <Published Units>  (522) 
nan

>  <Canonical Smiles>  (522) 
CC(C)(C)OC(=O)n1ncc2cc(NC3=C(NCc4ccc(Cl)cc4Cl)C(=O)C3=O)ccc12

>  <Data Validity Comment>  (522) 
nan

>  <Document Journal>  (522) 
nan

>  <Document Year>  (522) 
nan

>  <SRC ID>  (522) 
7

>  <UO Units>  (522) 
UO_0000065

>  <Potential Duplicate>  (522) 
False

>  <Class>  (522) 
0

$$$$

     RDKit          2D

 26 29  0  0  0  0  0  0  0  0999 V2000
  -11.7181   11.3623    0.0000 C   0  0  0  0  0  0  0  0  0  0  0  0
  -11.2546    9.9358    0.0000 O   0  0  0  0  0  0  0  0  0  0  0  0
   -9.7874    9.6239    0.0000 C   0  0  0  0  0  0  0  0  0  0  0  0
   -8.7837   10.7386    0.0000 C   0  0  0  0  0  0  0  0  0  0  0  0
   -7.3164   10.4267    0.0000 C   0  0  0  0  0  0  0  0  0  0  0  0
   -6.8529    9.0002    0.0000 C   0  0  0  0  0  0  0  0  0  0  0  0
   -5.3857    8.6883    0.0000 C   0  0  0  0  0  0  0  0  0  0  0  0
   -4.9222    7.2617    0.0000 N   0  0  0  0  0  0  0  0  0  0  0  0
   -3.4549    6.9498    0.0000 C   0  0  0  0  0  0  0  0  0  0  0  0
   -2.6380    5.6918    0.0000 C   0  0  0  0  0  0  0  0  0  0  0  0
   -2.9499    4.2246    0.0000 N   0  0  0  0  0  0  0  0  0  0  0  0
   -1.8351    3.2209    0.0000 C   0  0  0  0  0  0  0  0  0  0  0  0
   -0.4086    3.6844    0.0000 C   0  0  0  0  0  0  0  0  0  0  0  0
    0.7062    2.6807    0.0000 C   0  0  0  0  0  0  0  0  0  0  0  0
    0.3943    1.2135    0.0000 C   0  0  0  0  0  0  0  0  0  0  0  0
    1.2760    0.0000    0.0000 N   0  0  0  0  0  0  0  0  0  0  0  0
    0.3943   -1.2135    0.0000 N   0  0  0  0  0  0  0  0  0  0  0  0
   -1.0323   -0.7500    0.0000 C   0  0  0  0  0  0  0  0  0  0  0  0
   -1.0323    0.7500    0.0000 C   0  0  0  0  0  0  0  0  0  0  0  0
   -2.1470    1.7537    0.0000 C   0  0  0  0  0  0  0  0  0  0  0  0
   -1.3800    6.5088    0.0000 C   0  0  0  0  0  0  0  0  0  0  0  0
    0.0872    6.1969    0.0000 O   0  0  0  0  0  0  0  0  0  0  0  0
   -2.1969    7.7668    0.0000 C   0  0  0  0  0  0  0  0  0  0  0  0
   -1.8851    9.2340    0.0000 O   0  0  0  0  0  0  0  0  0  0  0  0
   -7.8566    7.8854    0.0000 C   0  0  0  0  0  0  0  0  0  0  0  0
   -9.3238    8.1973    0.0000 C   0  0  0  0  0  0  0  0  0  0  0  0
  1  2  1  0
  2  3  1  0
  3  4  2  0
  4  5  1  0
  5  6  2  0
  6  7  1  0
  7  8  1  0
  8  9  1  0
  9 10  2  0
 10 11  1  0
 11 12  1  0
 12 13  2  0
 13 14  1  0
 14 15  2  0
 15 16  1  0
 16 17  1  0
 17 18  2  0
 18 19  1  0
 19 20  2  0
 10 21  1  0
 21 22  2  0
 21 23  1  0
 23 24  2  0
  6 25  1  0
 25 26  2  0
 26  3  1  0
 23  9  1  0
 20 12  1  0
 19 15  1  0
M  END
>  <Molecule>  (523) 
CHEMBL1992536

>  <Standard Type>  (523) 
Ki

>  <Standard Relation>  (523) 
>

>  <Standard Value>  (523) 
1584.89

>  <Standard Units>  (523) 
nM

>  <pChEMBL Value>  (523) 
nan

>  <Comment>  (523) 
inactive

>  <Compound Key>  (523) 
SID103904655

>  <Assay>  (523) 
CHEMBL1963742

>  <Assay Description>  (523) 
PUBCHEM_BIOASSAY: Navigating the Kinome. (Class of assay: other) Panel member name: JAK3

>  <BAO Format>  (523) 
assay format

>  <Target>  (523) 
CHEMBL2148

>  <Target Pref. Name>  (523) 
Tyrosine-protein kinase JAK3

>  <Target Organism>  (523) 
Homo sapiens

>  <Target Type>  (523) 
SINGLE PROTEIN

>  <Document>  (523) 
CHEMBL1201862

>  <Source>  (523) 
PubChem BioAssays

>  <Max Phase>  (523) 
0

>  <#Ro5 Violations>  (523) 
0

>  <Molecular Weight>  (523) 
348.36

>  <Ligand Efficiency BEI>  (523) 
nan

>  <Ligand Efficiency LE>  (523) 
nan

>  <Ligand Efficiency LLE>  (523) 
nan

>  <Ligand Efficiency SEI>  (523) 
nan

>  <ALogP>  (523) 
2.52

>  <Assay Organism>  (523) 
nan

>  <Assay Tissue ChEMBL ID>  (523) 
nan

>  <Assay Tissue Name>  (523) 
nan

>  <Assay Cell Type>  (523) 
nan

>  <Assay Subcellular Fraction>  (523) 
nan

>  <Organism Tax ID>  (523) 
9606

>  <BAO Format ID>  (523) 
BAO_0000019

>  <Published Type>  (523) 
nan

>  <Published Relation>  (523) 
nan

>  <Published Value>  (523) 
nan

>  <Published Units>  (523) 
nan

>  <Canonical Smiles>  (523) 
COc1ccc(CNC2=C(Nc3ccc4[nH]ncc4c3)C(=O)C2=O)cc1

>  <Data Validity Comment>  (523) 
nan

>  <Document Journal>  (523) 
nan

>  <Document Year>  (523) 
nan

>  <SRC ID>  (523) 
7

>  <UO Units>  (523) 
UO_0000065

>  <Potential Duplicate>  (523) 
False

>  <Class>  (523) 
0

$$$$

     RDKit          2D

 39 42  0  0  0  0  0  0  0  0999 V2000
    6.9647   -2.5522    0.0000 C   0  0  0  0  0  0  0  0  0  0  0  0
    5.9610   -3.6669    0.0000 C   0  0  0  0  0  0  0  0  0  0  0  0
    4.4938   -3.3551    0.0000 N   0  0  0  0  0  0  0  0  0  0  0  0
    4.0302   -1.9285    0.0000 C   0  0  0  0  0  0  0  0  0  0  0  0
    5.0339   -0.8138    0.0000 C   0  0  0  0  0  0  0  0  0  0  0  0
    3.4901   -4.4698    0.0000 C   0  0  0  0  0  0  0  0  0  0  0  0
    2.0229   -4.1579    0.0000 C   0  0  0  0  0  0  0  0  0  0  0  0
    1.0192   -5.2726    0.0000 N   0  0  0  0  0  0  0  0  0  0  0  0
   -0.4481   -4.9608    0.0000 C   0  0  0  0  0  0  0  0  0  0  0  0
   -0.9116   -3.5342    0.0000 O   0  0  0  0  0  0  0  0  0  0  0  0
   -1.4518   -6.0755    0.0000 C   0  0  0  0  0  0  0  0  0  0  0  0
   -0.9882   -7.5021    0.0000 C   0  0  0  0  0  0  0  0  0  0  0  0
   -1.9919   -8.6168    0.0000 C   0  0  0  0  0  0  0  0  0  0  0  0
   -3.4591   -8.3049    0.0000 C   0  0  0  0  0  0  0  0  0  0  0  0
   -3.9227   -6.8783    0.0000 C   0  0  0  0  0  0  0  0  0  0  0  0
   -2.9190   -5.7636    0.0000 C   0  0  0  0  0  0  0  0  0  0  0  0
   -5.3899   -6.5665    0.0000 N   0  0  0  0  0  0  0  0  0  0  0  0
   -6.5046   -7.5702    0.0000 N   0  0  0  0  0  0  0  0  0  0  0  0
   -7.8037   -6.8202    0.0000 C   0  0  0  0  0  0  0  0  0  0  0  0
   -7.4918   -5.3529    0.0000 C   0  0  0  0  0  0  0  0  0  0  0  0
   -6.0000   -5.1962    0.0000 C   0  0  0  0  0  0  0  0  0  0  0  0
   -5.2500   -3.8971    0.0000 N   0  0  0  0  0  0  0  0  0  0  0  0
   -6.0000   -2.5981    0.0000 C   0  0  0  0  0  0  0  0  0  0  0  0
   -7.5000   -2.5981    0.0000 O   0  0  0  0  0  0  0  0  0  0  0  0
   -5.2500   -1.2990    0.0000 N   0  0  0  0  0  0  0  0  0  0  0  0
   -6.0000    0.0000    0.0000 C   0  0  0  0  0  0  0  0  0  0  0  0
   -7.5000    0.0000    0.0000 C   0  0  0  0  0  0  0  0  0  0  0  0
   -8.2500    1.2990    0.0000 C   0  0  0  0  0  0  0  0  0  0  0  0
   -7.5000    2.5981    0.0000 C   0  0  0  0  0  0  0  0  0  0  0  0
   -6.0000    2.5981    0.0000 C   0  0  0  0  0  0  0  0  0  0  0  0
   -5.2500    3.8971    0.0000 C   0  0  0  0  0  0  0  0  0  0  0  0
   -3.7500    3.8971    0.0000 C   0  0  0  0  0  0  0  0  0  0  0  0
   -3.0000    2.5981    0.0000 C   0  0  0  0  0  0  0  0  0  0  0  0
   -3.7500    1.2990    0.0000 C   0  0  0  0  0  0  0  0  0  0  0  0
   -5.2500    1.2990    0.0000 C   0  0  0  0  0  0  0  0  0  0  0  0
   -9.1740   -7.4303    0.0000 C   0  0  0  0  0  0  0  0  0  0  0  0
   -9.7841   -6.0600    0.0000 C   0  0  0  0  0  0  0  0  0  0  0  0
   -8.5639   -8.8006    0.0000 C   0  0  0  0  0  0  0  0  0  0  0  0
  -10.5443   -8.0404    0.0000 C   0  0  0  0  0  0  0  0  0  0  0  0
  1  2  1  0
  2  3  1  0
  3  4  1  0
  4  5  1  0
  3  6  1  0
  6  7  1  0
  7  8  1  0
  8  9  1  0
  9 10  2  0
  9 11  1  0
 11 12  2  0
 12 13  1  0
 13 14  2  0
 14 15  1  0
 15 16  2  0
 15 17  1  0
 17 18  1  0
 18 19  2  0
 19 20  1  0
 20 21  2  0
 21 22  1  0
 22 23  1  0
 23 24  2  0
 23 25  1  0
 25 26  1  0
 26 27  2  0
 27 28  1  0
 28 29  2  0
 29 30  1  0
 30 31  2  0
 31 32  1  0
 32 33  2  0
 33 34  1  0
 34 35  2  0
 19 36  1  0
 36 37  1  0
 36 38  1  0
 36 39  1  0
 16 11  1  0
 21 17  1  0
 35 26  1  0
 35 30  1  0
M  END
>  <Molecule>  (524) 
CHEMBL1970290

>  <Standard Type>  (524) 
Ki

>  <Standard Relation>  (524) 
=

>  <Standard Value>  (524) 
1995.26

>  <Standard Units>  (524) 
nM

>  <pChEMBL Value>  (524) 
5.7

>  <Comment>  (524) 
active

>  <Compound Key>  (524) 
SID103904826

>  <Assay>  (524) 
CHEMBL1963742

>  <Assay Description>  (524) 
PUBCHEM_BIOASSAY: Navigating the Kinome. (Class of assay: other) Panel member name: JAK3

>  <BAO Format>  (524) 
assay format

>  <Target>  (524) 
CHEMBL2148

>  <Target Pref. Name>  (524) 
Tyrosine-protein kinase JAK3

>  <Target Organism>  (524) 
Homo sapiens

>  <Target Type>  (524) 
SINGLE PROTEIN

>  <Document>  (524) 
CHEMBL1201862

>  <Source>  (524) 
PubChem BioAssays

>  <Max Phase>  (524) 
0

>  <#Ro5 Violations>  (524) 
2

>  <Molecular Weight>  (524) 
526.69

>  <Ligand Efficiency BEI>  (524) 
nan

>  <Ligand Efficiency LE>  (524) 
nan

>  <Ligand Efficiency LLE>  (524) 
nan

>  <Ligand Efficiency SEI>  (524) 
nan

>  <ALogP>  (524) 
6.04

>  <Assay Organism>  (524) 
nan

>  <Assay Tissue ChEMBL ID>  (524) 
nan

>  <Assay Tissue Name>  (524) 
nan

>  <Assay Cell Type>  (524) 
nan

>  <Assay Subcellular Fraction>  (524) 
nan

>  <Organism Tax ID>  (524) 
9606

>  <BAO Format ID>  (524) 
BAO_0000019

>  <Published Type>  (524) 
nan

>  <Published Relation>  (524) 
nan

>  <Published Value>  (524) 
nan

>  <Published Units>  (524) 
nan

>  <Canonical Smiles>  (524) 
CCN(CC)CCNC(=O)c1cccc(c1)n2nc(cc2NC(=O)Nc3cccc4ccccc34)C(C)(C)C

>  <Data Validity Comment>  (524) 
nan

>  <Document Journal>  (524) 
nan

>  <Document Year>  (524) 
nan

>  <SRC ID>  (524) 
7

>  <UO Units>  (524) 
UO_0000065

>  <Potential Duplicate>  (524) 
False

>  <Class>  (524) 
1

$$$$

     RDKit          2D

 17 19  0  0  0  0  0  0  0  0999 V2000
    3.0000    0.0000    0.0000 N   0  0  0  0  0  0  0  0  0  0  0  0
    1.5000    0.0000    0.0000 C   0  0  0  0  0  0  0  0  0  0  0  0
    0.7500   -1.2990    0.0000 N   0  0  0  0  0  0  0  0  0  0  0  0
   -0.7500   -1.2990    0.0000 C   0  0  0  0  0  0  0  0  0  0  0  0
   -1.5000    0.0000    0.0000 N   0  0  0  0  0  0  0  0  0  0  0  0
   -0.7500    1.2990    0.0000 C   0  0  0  0  0  0  0  0  0  0  0  0
    0.7500    1.2990    0.0000 C   0  0  0  0  0  0  0  0  0  0  0  0
    1.2135    2.7256    0.0000 C   0  0  0  0  0  0  0  0  0  0  0  0
    0.0000    3.6073    0.0000 C   0  0  0  0  0  0  0  0  0  0  0  0
   -1.2135    2.7256    0.0000 N   0  0  0  0  0  0  0  0  0  0  0  0
   -2.6401    3.1891    0.0000 C   0  0  0  0  0  0  0  0  0  0  0  0
   -3.8536    2.3075    0.0000 C   0  0  0  0  0  0  0  0  0  0  0  0
   -5.0672    3.1891    0.0000 C   0  0  0  0  0  0  0  0  0  0  0  0
   -4.6036    4.6157    0.0000 C   0  0  0  0  0  0  0  0  0  0  0  0
   -3.1036    4.6157    0.0000 C   0  0  0  0  0  0  0  0  0  0  0  0
    2.6401    3.1891    0.0000 C   0  0  0  0  0  0  0  0  0  0  0  0
    4.0667    3.6527    0.0000 C   0  0  0  0  0  0  0  0  0  0  0  0
  1  2  1  0
  2  3  2  0
  3  4  1  0
  4  5  2  0
  5  6  1  0
  6  7  2  0
  7  8  1  0
  8  9  2  0
  9 10  1  0
 10 11  1  0
 11 12  1  0
 12 13  1  0
 13 14  1  0
 14 15  1  0
  8 16  1  0
 16 17  3  0
  7  2  1  0
 10  6  1  0
 15 11  1  0
M  END
>  <Molecule>  (525) 
CHEMBL1993877

>  <Standard Type>  (525) 
Ki

>  <Standard Relation>  (525) 
>

>  <Standard Value>  (525) 
5011.87

>  <Standard Units>  (525) 
nM

>  <pChEMBL Value>  (525) 
nan

>  <Comment>  (525) 
inactive

>  <Compound Key>  (525) 
SID103904990

>  <Assay>  (525) 
CHEMBL1963742

>  <Assay Description>  (525) 
PUBCHEM_BIOASSAY: Navigating the Kinome. (Class of assay: other) Panel member name: JAK3

>  <BAO Format>  (525) 
assay format

>  <Target>  (525) 
CHEMBL2148

>  <Target Pref. Name>  (525) 
Tyrosine-protein kinase JAK3

>  <Target Organism>  (525) 
Homo sapiens

>  <Target Type>  (525) 
SINGLE PROTEIN

>  <Document>  (525) 
CHEMBL1201862

>  <Source>  (525) 
PubChem BioAssays

>  <Max Phase>  (525) 
0

>  <#Ro5 Violations>  (525) 
0

>  <Molecular Weight>  (525) 
226.28

>  <Ligand Efficiency BEI>  (525) 
nan

>  <Ligand Efficiency LE>  (525) 
nan

>  <Ligand Efficiency LLE>  (525) 
nan

>  <Ligand Efficiency SEI>  (525) 
nan

>  <ALogP>  (525) 
2.11

>  <Assay Organism>  (525) 
nan

>  <Assay Tissue ChEMBL ID>  (525) 
nan

>  <Assay Tissue Name>  (525) 
nan

>  <Assay Cell Type>  (525) 
nan

>  <Assay Subcellular Fraction>  (525) 
nan

>  <Organism Tax ID>  (525) 
9606

>  <BAO Format ID>  (525) 
BAO_0000019

>  <Published Type>  (525) 
nan

>  <Published Relation>  (525) 
nan

>  <Published Value>  (525) 
nan

>  <Published Units>  (525) 
nan

>  <Canonical Smiles>  (525) 
Nc1ncnc2c1c(cn2C3CCCC3)C#C

>  <Data Validity Comment>  (525) 
nan

>  <Document Journal>  (525) 
nan

>  <Document Year>  (525) 
nan

>  <SRC ID>  (525) 
7

>  <UO Units>  (525) 
UO_0000065

>  <Potential Duplicate>  (525) 
False

>  <Class>  (525) 
0

$$$$

     RDKit          2D

 30 32  0  0  0  0  0  0  0  0999 V2000
   13.7849    2.8025    0.0000 O   0  0  0  0  0  0  0  0  0  0  0  0
   12.6701    3.8062    0.0000 C   0  0  0  0  0  0  0  0  0  0  0  0
   11.2436    3.3427    0.0000 C   0  0  0  0  0  0  0  0  0  0  0  0
   10.1288    4.3464    0.0000 O   0  0  0  0  0  0  0  0  0  0  0  0
    8.7023    3.8829    0.0000 C   0  0  0  0  0  0  0  0  0  0  0  0
    8.3904    2.4157    0.0000 C   0  0  0  0  0  0  0  0  0  0  0  0
    6.9638    1.9521    0.0000 C   0  0  0  0  0  0  0  0  0  0  0  0
    7.5739    0.5818    0.0000 O   0  0  0  0  0  0  0  0  0  0  0  0
    7.5739   -0.9182    0.0000 C   0  0  0  0  0  0  0  0  0  0  0  0
    6.9638   -2.2885    0.0000 C   0  0  0  0  0  0  0  0  0  0  0  0
    5.8491   -3.2922    0.0000 C   0  0  0  0  0  0  0  0  0  0  0  0
    4.4225   -3.7557    0.0000 C   0  0  0  0  0  0  0  0  0  0  0  0
    2.9307   -3.5989    0.0000 C   0  0  0  0  0  0  0  0  0  0  0  0
    1.6317   -2.8489    0.0000 O   0  0  0  0  0  0  0  0  0  0  0  0
    0.7500   -1.2990    0.0000 C   0  0  0  0  0  0  0  0  0  0  0  0
    1.5000    0.0000    0.0000 N   0  0  0  0  0  0  0  0  0  0  0  0
    0.7500    1.2990    0.0000 C   0  0  0  0  0  0  0  0  0  0  0  0
    1.6317    2.5126    0.0000 N   0  0  0  0  0  0  0  0  0  0  0  0
    2.9307    3.2626    0.0000 C   0  0  0  0  0  0  0  0  0  0  0  0
    2.4672    4.6891    0.0000 O   0  0  0  0  0  0  0  0  0  0  0  0
    4.4225    3.4194    0.0000 N   0  0  0  0  0  0  0  0  0  0  0  0
    5.8491    2.9558    0.0000 C   0  0  0  0  0  0  0  0  0  0  0  0
    6.1610    4.4231    0.0000 C   0  0  0  0  0  0  0  0  0  0  0  0
    7.5875    4.8866    0.0000 C   0  0  0  0  0  0  0  0  0  0  0  0
    7.8994    6.3538    0.0000 Cl  0  0  0  0  0  0  0  0  0  0  0  0
   -0.7500    1.2990    0.0000 C   0  0  0  0  0  0  0  0  0  0  0  0
   -1.5000    0.0000    0.0000 N   0  0  0  0  0  0  0  0  0  0  0  0
   -0.7500   -1.2990    0.0000 C   0  0  0  0  0  0  0  0  0  0  0  0
   -1.5000   -2.5981    0.0000 C   0  0  0  0  0  0  0  0  0  0  0  0
   -2.2500   -3.8971    0.0000 N   0  0  0  0  0  0  0  0  0  0  0  0
  1  2  1  0
  2  3  1  0
  3  4  1  0
  4  5  1  0
  5  6  2  0
  6  7  1  0
  7  8  1  0
  8  9  1  0
  9 10  1  0
 10 11  1  0
 11 12  1  0
 12 13  1  0
 13 14  1  0
 14 15  1  0
 15 16  1  0
 16 17  2  0
 17 18  1  0
 18 19  1  0
 19 20  2  0
 19 21  1  0
 21 22  1  0
 22 23  1  0
 23 24  2  0
 24 25  1  0
 17 26  1  0
 26 27  2  0
 27 28  1  0
 28 29  1  0
 29 30  3  0
 24  5  1  0
 22  7  2  0
 28 15  2  0
M  END
>  <Molecule>  (526) 
CHEMBL413779

>  <Standard Type>  (526) 
Ki

>  <Standard Relation>  (526) 
>

>  <Standard Value>  (526) 
1584.89

>  <Standard Units>  (526) 
nM

>  <pChEMBL Value>  (526) 
nan

>  <Comment>  (526) 
inactive

>  <Compound Key>  (526) 
SID103905149

>  <Assay>  (526) 
CHEMBL1963742

>  <Assay Description>  (526) 
PUBCHEM_BIOASSAY: Navigating the Kinome. (Class of assay: other) Panel member name: JAK3

>  <BAO Format>  (526) 
assay format

>  <Target>  (526) 
CHEMBL2148

>  <Target Pref. Name>  (526) 
Tyrosine-protein kinase JAK3

>  <Target Organism>  (526) 
Homo sapiens

>  <Target Type>  (526) 
SINGLE PROTEIN

>  <Document>  (526) 
CHEMBL1201862

>  <Source>  (526) 
PubChem BioAssays

>  <Max Phase>  (526) 
0

>  <#Ro5 Violations>  (526) 
0

>  <Molecular Weight>  (526) 
433.85

>  <Ligand Efficiency BEI>  (526) 
nan

>  <Ligand Efficiency LE>  (526) 
nan

>  <Ligand Efficiency LLE>  (526) 
nan

>  <Ligand Efficiency SEI>  (526) 
nan

>  <ALogP>  (526) 
2.96

>  <Assay Organism>  (526) 
nan

>  <Assay Tissue ChEMBL ID>  (526) 
nan

>  <Assay Tissue Name>  (526) 
nan

>  <Assay Cell Type>  (526) 
nan

>  <Assay Subcellular Fraction>  (526) 
nan

>  <Organism Tax ID>  (526) 
9606

>  <BAO Format ID>  (526) 
BAO_0000019

>  <Published Type>  (526) 
nan

>  <Published Relation>  (526) 
nan

>  <Published Value>  (526) 
nan

>  <Published Units>  (526) 
nan

>  <Canonical Smiles>  (526) 
OCCOc1cc2OCCCCCOc3nc(NC(=O)Nc2cc1Cl)cnc3C#N

>  <Data Validity Comment>  (526) 
nan

>  <Document Journal>  (526) 
nan

>  <Document Year>  (526) 
nan

>  <SRC ID>  (526) 
7

>  <UO Units>  (526) 
UO_0000065

>  <Potential Duplicate>  (526) 
False

>  <Class>  (526) 
0

$$$$

     RDKit          2D

 38 41  0  0  0  0  0  0  0  0999 V2000
   -7.8396   -9.2187    0.0000 C   0  0  0  0  0  0  0  0  0  0  0  0
   -6.3478   -9.0619    0.0000 C   0  0  0  0  0  0  0  0  0  0  0  0
   -4.8560   -8.9052    0.0000 C   0  0  0  0  0  0  0  0  0  0  0  0
   -6.1910  -10.5537    0.0000 C   0  0  0  0  0  0  0  0  0  0  0  0
   -6.5046   -7.5702    0.0000 C   0  0  0  0  0  0  0  0  0  0  0  0
   -5.3899   -6.5665    0.0000 C   0  0  0  0  0  0  0  0  0  0  0  0
   -6.0000   -5.1962    0.0000 C   0  0  0  0  0  0  0  0  0  0  0  0
   -5.2500   -3.8971    0.0000 N   0  0  0  0  0  0  0  0  0  0  0  0
   -3.7500   -3.8971    0.0000 C   0  0  0  0  0  0  0  0  0  0  0  0
   -3.0000   -5.1962    0.0000 O   0  0  0  0  0  0  0  0  0  0  0  0
   -3.0000   -2.5981    0.0000 C   0  0  0  0  0  0  0  0  0  0  0  0
   -3.7500   -1.2990    0.0000 O   0  0  0  0  0  0  0  0  0  0  0  0
   -1.5000   -2.5981    0.0000 C   0  0  0  0  0  0  0  0  0  0  0  0
   -0.7500   -3.8971    0.0000 C   0  0  0  0  0  0  0  0  0  0  0  0
    0.7500   -3.8971    0.0000 C   0  0  0  0  0  0  0  0  0  0  0  0
    1.5000   -2.5981    0.0000 C   0  0  0  0  0  0  0  0  0  0  0  0
    0.7500   -1.2990    0.0000 C   0  0  0  0  0  0  0  0  0  0  0  0
    1.5000    0.0000    0.0000 C   0  0  0  0  0  0  0  0  0  0  0  0
    0.7500    1.2990    0.0000 C   0  0  0  0  0  0  0  0  0  0  0  0
   -0.7500    1.2990    0.0000 C   0  0  0  0  0  0  0  0  0  0  0  0
   -1.5000    0.0000    0.0000 C   0  0  0  0  0  0  0  0  0  0  0  0
   -0.7500   -1.2990    0.0000 C   0  0  0  0  0  0  0  0  0  0  0  0
   -7.4918   -5.3529    0.0000 N   0  0  0  0  0  0  0  0  0  0  0  0
   -7.8037   -6.8202    0.0000 N   0  0  0  0  0  0  0  0  0  0  0  0
   -8.4955   -4.2382    0.0000 C   0  0  0  0  0  0  0  0  0  0  0  0
   -8.0320   -2.8116    0.0000 C   0  0  0  0  0  0  0  0  0  0  0  0
   -9.0356   -1.6969    0.0000 C   0  0  0  0  0  0  0  0  0  0  0  0
  -10.5029   -2.0088    0.0000 C   0  0  0  0  0  0  0  0  0  0  0  0
  -10.9664   -3.4354    0.0000 C   0  0  0  0  0  0  0  0  0  0  0  0
  -12.4336   -3.7472    0.0000 O   0  0  0  0  0  0  0  0  0  0  0  0
  -13.4373   -2.6325    0.0000 C   0  0  0  0  0  0  0  0  0  0  0  0
  -14.9045   -2.9444    0.0000 C   0  0  0  0  0  0  0  0  0  0  0  0
  -15.3681   -4.3710    0.0000 O   0  0  0  0  0  0  0  0  0  0  0  0
  -15.9082   -1.8297    0.0000 N   0  0  0  0  0  0  0  0  0  0  0  0
  -17.3755   -2.1415    0.0000 C   0  0  0  0  0  0  0  0  0  0  0  0
  -18.3791   -1.0268    0.0000 C   0  0  0  0  0  0  0  0  0  0  0  0
  -19.8464   -1.3387    0.0000 O   0  0  0  0  0  0  0  0  0  0  0  0
   -9.9627   -4.5501    0.0000 C   0  0  0  0  0  0  0  0  0  0  0  0
  1  2  1  0
  2  3  1  0
  2  4  1  0
  2  5  1  0
  5  6  1  0
  6  7  2  0
  7  8  1  0
  8  9  1  0
  9 10  2  0
  9 11  1  0
 11 12  2  0
 11 13  1  0
 13 14  2  0
 14 15  1  0
 15 16  2  0
 16 17  1  0
 17 18  2  0
 18 19  1  0
 19 20  2  0
 20 21  1  0
 21 22  2  0
  7 23  1  0
 23 24  1  0
 23 25  1  0
 25 26  2  0
 26 27  1  0
 27 28  2  0
 28 29  1  0
 29 30  1  0
 30 31  1  0
 31 32  1  0
 32 33  2  0
 32 34  1  0
 34 35  1  0
 35 36  1  0
 36 37  1  0
 29 38  2  0
 24  5  2  0
 22 13  1  0
 22 17  1  0
 38 25  1  0
M  END
>  <Molecule>  (527) 
CHEMBL1998680

>  <Standard Type>  (527) 
Ki

>  <Standard Relation>  (527) 
>

>  <Standard Value>  (527) 
5011.87

>  <Standard Units>  (527) 
nM

>  <pChEMBL Value>  (527) 
nan

>  <Comment>  (527) 
inactive

>  <Compound Key>  (527) 
SID103904844

>  <Assay>  (527) 
CHEMBL1963742

>  <Assay Description>  (527) 
PUBCHEM_BIOASSAY: Navigating the Kinome. (Class of assay: other) Panel member name: JAK3

>  <BAO Format>  (527) 
assay format

>  <Target>  (527) 
CHEMBL2148

>  <Target Pref. Name>  (527) 
Tyrosine-protein kinase JAK3

>  <Target Organism>  (527) 
Homo sapiens

>  <Target Type>  (527) 
SINGLE PROTEIN

>  <Document>  (527) 
CHEMBL1201862

>  <Source>  (527) 
PubChem BioAssays

>  <Max Phase>  (527) 
0

>  <#Ro5 Violations>  (527) 
1

>  <Molecular Weight>  (527) 
514.58

>  <Ligand Efficiency BEI>  (527) 
nan

>  <Ligand Efficiency LE>  (527) 
nan

>  <Ligand Efficiency LLE>  (527) 
nan

>  <Ligand Efficiency SEI>  (527) 
nan

>  <ALogP>  (527) 
3.63

>  <Assay Organism>  (527) 
nan

>  <Assay Tissue ChEMBL ID>  (527) 
nan

>  <Assay Tissue Name>  (527) 
nan

>  <Assay Cell Type>  (527) 
nan

>  <Assay Subcellular Fraction>  (527) 
nan

>  <Organism Tax ID>  (527) 
9606

>  <BAO Format ID>  (527) 
BAO_0000019

>  <Published Type>  (527) 
nan

>  <Published Relation>  (527) 
nan

>  <Published Value>  (527) 
nan

>  <Published Units>  (527) 
nan

>  <Canonical Smiles>  (527) 
CC(C)(C)c1cc(NC(=O)C(=O)c2cccc3ccccc23)n(n1)c4cccc(OCC(=O)NCCO)c4

>  <Data Validity Comment>  (527) 
nan

>  <Document Journal>  (527) 
nan

>  <Document Year>  (527) 
nan

>  <SRC ID>  (527) 
7

>  <UO Units>  (527) 
UO_0000065

>  <Potential Duplicate>  (527) 
False

>  <Class>  (527) 
0

$$$$

     RDKit          2D

 28 31  0  0  0  0  0  0  0  0999 V2000
   -1.8836    6.6179    0.0000 C   0  0  0  0  0  0  0  0  0  0  0  0
   -3.3102    6.1544    0.0000 C   0  0  0  0  0  0  0  0  0  0  0  0
   -4.4249    7.1580    0.0000 C   0  0  0  0  0  0  0  0  0  0  0  0
   -3.6221    4.6871    0.0000 C   0  0  0  0  0  0  0  0  0  0  0  0
   -5.0487    4.2236    0.0000 N   0  0  0  0  0  0  0  0  0  0  0  0
   -5.3605    2.7564    0.0000 C   0  0  0  0  0  0  0  0  0  0  0  0
   -4.2458    1.7527    0.0000 C   0  0  0  0  0  0  0  0  0  0  0  0
   -4.5577    0.2855    0.0000 C   0  0  0  0  0  0  0  0  0  0  0  0
   -5.9843   -0.1781    0.0000 C   0  0  0  0  0  0  0  0  0  0  0  0
   -7.0990    0.8256    0.0000 C   0  0  0  0  0  0  0  0  0  0  0  0
   -6.7871    2.2929    0.0000 C   0  0  0  0  0  0  0  0  0  0  0  0
   -6.2961   -1.6453    0.0000 N   0  0  0  0  0  0  0  0  0  0  0  0
   -5.1814   -2.6490    0.0000 C   0  0  0  0  0  0  0  0  0  0  0  0
   -5.4933   -4.1162    0.0000 N   0  0  0  0  0  0  0  0  0  0  0  0
   -4.3786   -5.1199    0.0000 C   0  0  0  0  0  0  0  0  0  0  0  0
   -4.6904   -6.5871    0.0000 Cl  0  0  0  0  0  0  0  0  0  0  0  0
   -2.9520   -4.6564    0.0000 C   0  0  0  0  0  0  0  0  0  0  0  0
   -2.6401   -3.1891    0.0000 C   0  0  0  0  0  0  0  0  0  0  0  0
   -3.7548   -2.1855    0.0000 N   0  0  0  0  0  0  0  0  0  0  0  0
   -1.2135   -2.7256    0.0000 C   0  0  0  0  0  0  0  0  0  0  0  0
    0.0000   -3.6073    0.0000 C   0  0  0  0  0  0  0  0  0  0  0  0
    1.2135   -2.7256    0.0000 N   0  0  0  0  0  0  0  0  0  0  0  0
    0.7500   -1.2990    0.0000 C   0  0  0  0  0  0  0  0  0  0  0  0
    1.5000    0.0000    0.0000 N   0  0  0  0  0  0  0  0  0  0  0  0
    0.7500    1.2990    0.0000 C   0  0  0  0  0  0  0  0  0  0  0  0
   -0.7500    1.2990    0.0000 C   0  0  0  0  0  0  0  0  0  0  0  0
   -1.5000    0.0000    0.0000 C   0  0  0  0  0  0  0  0  0  0  0  0
   -0.7500   -1.2990    0.0000 C   0  0  0  0  0  0  0  0  0  0  0  0
  1  2  1  0
  2  3  1  0
  2  4  1  0
  4  5  1  0
  5  6  1  0
  6  7  1  0
  7  8  1  0
  8  9  1  0
  9 10  1  0
 10 11  1  0
  9 12  1  0
 12 13  1  0
 13 14  2  0
 14 15  1  0
 15 16  1  0
 15 17  2  0
 17 18  1  0
 18 19  2  0
 18 20  1  0
 20 21  2  0
 21 22  1  0
 22 23  1  0
 23 24  2  0
 24 25  1  0
 25 26  2  0
 26 27  1  0
 27 28  2  0
 11  6  1  0
 19 13  1  0
 28 20  1  0
 28 23  1  0
M  END
>  <Molecule>  (528) 
CHEMBL2006456

>  <Standard Type>  (528) 
Ki

>  <Standard Relation>  (528) 
=

>  <Standard Value>  (528) 
1000.0

>  <Standard Units>  (528) 
nM

>  <pChEMBL Value>  (528) 
6.0

>  <Comment>  (528) 
active

>  <Compound Key>  (528) 
SID103904228

>  <Assay>  (528) 
CHEMBL1963742

>  <Assay Description>  (528) 
PUBCHEM_BIOASSAY: Navigating the Kinome. (Class of assay: other) Panel member name: JAK3

>  <BAO Format>  (528) 
assay format

>  <Target>  (528) 
CHEMBL2148

>  <Target Pref. Name>  (528) 
Tyrosine-protein kinase JAK3

>  <Target Organism>  (528) 
Homo sapiens

>  <Target Type>  (528) 
SINGLE PROTEIN

>  <Document>  (528) 
CHEMBL1201862

>  <Source>  (528) 
PubChem BioAssays

>  <Max Phase>  (528) 
0

>  <#Ro5 Violations>  (528) 
0

>  <Molecular Weight>  (528) 
398.94

>  <Ligand Efficiency BEI>  (528) 
nan

>  <Ligand Efficiency LE>  (528) 
nan

>  <Ligand Efficiency LLE>  (528) 
nan

>  <Ligand Efficiency SEI>  (528) 
nan

>  <ALogP>  (528) 
4.64

>  <Assay Organism>  (528) 
nan

>  <Assay Tissue ChEMBL ID>  (528) 
nan

>  <Assay Tissue Name>  (528) 
nan

>  <Assay Cell Type>  (528) 
nan

>  <Assay Subcellular Fraction>  (528) 
nan

>  <Organism Tax ID>  (528) 
9606

>  <BAO Format ID>  (528) 
BAO_0000019

>  <Published Type>  (528) 
nan

>  <Published Relation>  (528) 
nan

>  <Published Value>  (528) 
nan

>  <Published Units>  (528) 
nan

>  <Canonical Smiles>  (528) 
CC(C)CNC1CCC(CC1)Nc2nc(Cl)cc(n2)c3c[nH]c4ncccc34

>  <Data Validity Comment>  (528) 
nan

>  <Document Journal>  (528) 
nan

>  <Document Year>  (528) 
nan

>  <SRC ID>  (528) 
7

>  <UO Units>  (528) 
UO_0000065

>  <Potential Duplicate>  (528) 
False

>  <Class>  (528) 
1

$$$$

     RDKit          2D

 34 38  0  0  0  0  0  0  0  0999 V2000
   -7.8555   -8.9814    0.0000 C   0  0  0  0  0  0  0  0  0  0  0  0
   -6.4289   -8.5179    0.0000 O   0  0  0  0  0  0  0  0  0  0  0  0
   -6.1170   -7.0506    0.0000 C   0  0  0  0  0  0  0  0  0  0  0  0
   -7.2317   -6.0469    0.0000 C   0  0  0  0  0  0  0  0  0  0  0  0
   -6.9199   -4.5797    0.0000 C   0  0  0  0  0  0  0  0  0  0  0  0
   -8.0346   -3.5760    0.0000 O   0  0  0  0  0  0  0  0  0  0  0  0
   -7.7227   -2.1088    0.0000 C   0  0  0  0  0  0  0  0  0  0  0  0
   -5.4933   -4.1162    0.0000 C   0  0  0  0  0  0  0  0  0  0  0  0
   -4.3786   -5.1199    0.0000 C   0  0  0  0  0  0  0  0  0  0  0  0
   -4.6904   -6.5871    0.0000 C   0  0  0  0  0  0  0  0  0  0  0  0
   -2.9520   -4.6564    0.0000 C   0  0  0  0  0  0  0  0  0  0  0  0
   -1.8373   -5.6601    0.0000 O   0  0  0  0  0  0  0  0  0  0  0  0
   -2.6401   -3.1891    0.0000 N   0  0  0  0  0  0  0  0  0  0  0  0
   -1.2135   -2.7256    0.0000 C   0  0  0  0  0  0  0  0  0  0  0  0
    0.0000   -3.6073    0.0000 N   0  0  0  0  0  0  0  0  0  0  0  0
    1.2135   -2.7256    0.0000 N   0  0  0  0  0  0  0  0  0  0  0  0
    0.7500   -1.2990    0.0000 C   0  0  0  0  0  0  0  0  0  0  0  0
    1.5000    0.0000    0.0000 C   0  0  0  0  0  0  0  0  0  0  0  0
    0.7500    1.2990    0.0000 C   0  0  0  0  0  0  0  0  0  0  0  0
   -0.7500    1.2990    0.0000 C   0  0  0  0  0  0  0  0  0  0  0  0
   -1.5000    0.0000    0.0000 C   0  0  0  0  0  0  0  0  0  0  0  0
   -0.7500   -1.2990    0.0000 C   0  0  0  0  0  0  0  0  0  0  0  0
   -1.5000    2.5981    0.0000 C   0  0  0  0  0  0  0  0  0  0  0  0
   -2.9918    2.7549    0.0000 C   0  0  0  0  0  0  0  0  0  0  0  0
   -3.3037    4.2221    0.0000 N   0  0  0  0  0  0  0  0  0  0  0  0
   -4.6740    4.8322    0.0000 C   0  0  0  0  0  0  0  0  0  0  0  0
   -4.8308    6.3240    0.0000 C   0  0  0  0  0  0  0  0  0  0  0  0
   -3.6172    7.2057    0.0000 C   0  0  0  0  0  0  0  0  0  0  0  0
   -3.7740    8.6974    0.0000 C   0  0  0  0  0  0  0  0  0  0  0  0
   -5.1443    9.3075    0.0000 C   0  0  0  0  0  0  0  0  0  0  0  0
   -6.3579    8.4259    0.0000 C   0  0  0  0  0  0  0  0  0  0  0  0
   -6.2011    6.9341    0.0000 C   0  0  0  0  0  0  0  0  0  0  0  0
   -2.0046    4.9721    0.0000 N   0  0  0  0  0  0  0  0  0  0  0  0
   -0.8899    3.9684    0.0000 N   0  0  0  0  0  0  0  0  0  0  0  0
  1  2  1  0
  2  3  1  0
  3  4  2  0
  4  5  1  0
  5  6  1  0
  6  7  1  0
  5  8  2  0
  8  9  1  0
  9 10  2  0
  9 11  1  0
 11 12  2  0
 11 13  1  0
 13 14  1  0
 14 15  2  0
 15 16  1  0
 16 17  1  0
 17 18  2  0
 18 19  1  0
 19 20  2  0
 20 21  1  0
 21 22  2  0
 20 23  1  0
 23 24  2  0
 24 25  1  0
 25 26  1  0
 26 27  1  0
 27 28  2  0
 28 29  1  0
 29 30  2  0
 30 31  1  0
 31 32  2  0
 25 33  1  0
 33 34  2  0
 10  3  1  0
 22 14  1  0
 22 17  1  0
 34 23  1  0
 32 27  1  0
M  END
>  <Molecule>  (529) 
CHEMBL2002613

>  <Standard Type>  (529) 
Ki

>  <Standard Relation>  (529) 
>

>  <Standard Value>  (529) 
5011.87

>  <Standard Units>  (529) 
nM

>  <pChEMBL Value>  (529) 
nan

>  <Comment>  (529) 
inactive

>  <Compound Key>  (529) 
SID103904522

>  <Assay>  (529) 
CHEMBL1963742

>  <Assay Description>  (529) 
PUBCHEM_BIOASSAY: Navigating the Kinome. (Class of assay: other) Panel member name: JAK3

>  <BAO Format>  (529) 
assay format

>  <Target>  (529) 
CHEMBL2148

>  <Target Pref. Name>  (529) 
Tyrosine-protein kinase JAK3

>  <Target Organism>  (529) 
Homo sapiens

>  <Target Type>  (529) 
SINGLE PROTEIN

>  <Document>  (529) 
CHEMBL1201862

>  <Source>  (529) 
PubChem BioAssays

>  <Max Phase>  (529) 
0

>  <#Ro5 Violations>  (529) 
0

>  <Molecular Weight>  (529) 
454.49

>  <Ligand Efficiency BEI>  (529) 
nan

>  <Ligand Efficiency LE>  (529) 
nan

>  <Ligand Efficiency LLE>  (529) 
nan

>  <Ligand Efficiency SEI>  (529) 
nan

>  <ALogP>  (529) 
4.14

>  <Assay Organism>  (529) 
nan

>  <Assay Tissue ChEMBL ID>  (529) 
nan

>  <Assay Tissue Name>  (529) 
nan

>  <Assay Cell Type>  (529) 
nan

>  <Assay Subcellular Fraction>  (529) 
nan

>  <Organism Tax ID>  (529) 
9606

>  <BAO Format ID>  (529) 
BAO_0000019

>  <Published Type>  (529) 
nan

>  <Published Relation>  (529) 
nan

>  <Published Value>  (529) 
nan

>  <Published Units>  (529) 
nan

>  <Canonical Smiles>  (529) 
COc1cc(OC)cc(c1)C(=O)Nc2n[nH]c3ccc(cc23)c4cn(Cc5ccccc5)nn4

>  <Data Validity Comment>  (529) 
nan

>  <Document Journal>  (529) 
nan

>  <Document Year>  (529) 
nan

>  <SRC ID>  (529) 
7

>  <UO Units>  (529) 
UO_0000065

>  <Potential Duplicate>  (529) 
False

>  <Class>  (529) 
0

$$$$

     RDKit          2D

 30 33  0  0  0  0  0  0  0  0999 V2000
   -3.0000   -5.1962    0.0000 N   0  0  0  0  0  0  0  0  0  0  0  0
   -3.7500   -3.8971    0.0000 C   0  0  0  0  0  0  0  0  0  0  0  0
   -3.0000   -2.5981    0.0000 C   0  0  0  0  0  0  0  0  0  0  0  0
   -1.5000   -2.5981    0.0000 C   0  0  0  0  0  0  0  0  0  0  0  0
   -0.7500   -3.8971    0.0000 C   0  0  0  0  0  0  0  0  0  0  0  0
    0.7500   -3.8971    0.0000 C   0  0  0  0  0  0  0  0  0  0  0  0
    1.5000   -2.5981    0.0000 C   0  0  0  0  0  0  0  0  0  0  0  0
    0.7500   -1.2990    0.0000 C   0  0  0  0  0  0  0  0  0  0  0  0
    1.5000    0.0000    0.0000 C   0  0  0  0  0  0  0  0  0  0  0  0
    0.7500    1.2990    0.0000 C   0  0  0  0  0  0  0  0  0  0  0  0
   -0.7500    1.2990    0.0000 C   0  0  0  0  0  0  0  0  0  0  0  0
   -1.5000    0.0000    0.0000 C   0  0  0  0  0  0  0  0  0  0  0  0
   -0.7500   -1.2990    0.0000 C   0  0  0  0  0  0  0  0  0  0  0  0
   -5.2500   -3.8971    0.0000 C   0  0  0  0  0  0  0  0  0  0  0  0
   -6.0000   -2.5981    0.0000 O   0  0  0  0  0  0  0  0  0  0  0  0
   -6.0000   -5.1962    0.0000 N   0  0  0  0  0  0  0  0  0  0  0  0
   -7.5000   -5.1962    0.0000 C   0  0  0  0  0  0  0  0  0  0  0  0
   -8.2500   -3.8971    0.0000 C   0  0  0  0  0  0  0  0  0  0  0  0
   -9.7500   -3.8971    0.0000 N   0  0  0  0  0  0  0  0  0  0  0  0
  -10.5000   -5.1962    0.0000 C   0  0  0  0  0  0  0  0  0  0  0  0
   -9.7500   -6.4952    0.0000 C   0  0  0  0  0  0  0  0  0  0  0  0
  -10.5000   -7.7942    0.0000 C   0  0  0  0  0  0  0  0  0  0  0  0
  -12.0000   -7.7942    0.0000 C   0  0  0  0  0  0  0  0  0  0  0  0
  -12.7500   -9.0933    0.0000 C   0  0  0  0  0  0  0  0  0  0  0  0
  -14.2500   -9.0933    0.0000 C   0  0  0  0  0  0  0  0  0  0  0  0
  -15.0000  -10.3923    0.0000 C   0  0  0  0  0  0  0  0  0  0  0  0
  -14.2500  -11.6913    0.0000 N   0  0  0  0  0  0  0  0  0  0  0  0
  -12.7500  -11.6913    0.0000 C   0  0  0  0  0  0  0  0  0  0  0  0
  -12.0000  -10.3923    0.0000 C   0  0  0  0  0  0  0  0  0  0  0  0
   -8.2500   -6.4952    0.0000 C   0  0  0  0  0  0  0  0  0  0  0  0
  1  2  1  0
  2  3  1  0
  3  4  1  0
  4  5  2  0
  5  6  1  0
  6  7  2  0
  7  8  1  0
  8  9  2  0
  9 10  1  0
 10 11  2  0
 11 12  1  0
 12 13  2  0
  2 14  1  0
 14 15  2  0
 14 16  1  0
 16 17  1  0
 17 18  2  0
 18 19  1  0
 19 20  2  0
 20 21  1  0
 21 22  1  0
 22 23  2  3
 23 24  1  0
 24 25  2  0
 25 26  1  0
 26 27  2  0
 27 28  1  0
 28 29  2  0
 21 30  2  0
 13  4  1  0
 13  8  1  0
 30 17  1  0
 29 24  1  0
M  END
>  <Molecule>  (530) 
CHEMBL1985580

>  <Standard Type>  (530) 
Ki

>  <Standard Relation>  (530) 
>

>  <Standard Value>  (530) 
1584.89

>  <Standard Units>  (530) 
nM

>  <pChEMBL Value>  (530) 
nan

>  <Comment>  (530) 
inactive

>  <Compound Key>  (530) 
SID103904969

>  <Assay>  (530) 
CHEMBL1963742

>  <Assay Description>  (530) 
PUBCHEM_BIOASSAY: Navigating the Kinome. (Class of assay: other) Panel member name: JAK3

>  <BAO Format>  (530) 
assay format

>  <Target>  (530) 
CHEMBL2148

>  <Target Pref. Name>  (530) 
Tyrosine-protein kinase JAK3

>  <Target Organism>  (530) 
Homo sapiens

>  <Target Type>  (530) 
SINGLE PROTEIN

>  <Document>  (530) 
CHEMBL1201862

>  <Source>  (530) 
PubChem BioAssays

>  <Max Phase>  (530) 
0

>  <#Ro5 Violations>  (530) 
0

>  <Molecular Weight>  (530) 
394.48

>  <Ligand Efficiency BEI>  (530) 
nan

>  <Ligand Efficiency LE>  (530) 
nan

>  <Ligand Efficiency LLE>  (530) 
nan

>  <Ligand Efficiency SEI>  (530) 
nan

>  <ALogP>  (530) 
4.31

>  <Assay Organism>  (530) 
nan

>  <Assay Tissue ChEMBL ID>  (530) 
nan

>  <Assay Tissue Name>  (530) 
nan

>  <Assay Cell Type>  (530) 
nan

>  <Assay Subcellular Fraction>  (530) 
nan

>  <Organism Tax ID>  (530) 
9606

>  <BAO Format ID>  (530) 
BAO_0000019

>  <Published Type>  (530) 
nan

>  <Published Relation>  (530) 
nan

>  <Published Value>  (530) 
nan

>  <Published Units>  (530) 
nan

>  <Canonical Smiles>  (530) 
NC(Cc1cccc2ccccc12)C(=O)Nc3cncc(C=Cc4ccncc4)c3

>  <Data Validity Comment>  (530) 
nan

>  <Document Journal>  (530) 
nan

>  <Document Year>  (530) 
nan

>  <SRC ID>  (530) 
7

>  <UO Units>  (530) 
UO_0000065

>  <Potential Duplicate>  (530) 
False

>  <Class>  (530) 
0

$$$$

     RDKit          2D

 37 40  0  0  0  0  0  0  0  0999 V2000
   -7.8396   -9.2187    0.0000 C   0  0  0  0  0  0  0  0  0  0  0  0
   -6.3478   -9.0619    0.0000 C   0  0  0  0  0  0  0  0  0  0  0  0
   -4.8560   -8.9052    0.0000 C   0  0  0  0  0  0  0  0  0  0  0  0
   -6.1910  -10.5537    0.0000 C   0  0  0  0  0  0  0  0  0  0  0  0
   -6.5046   -7.5702    0.0000 C   0  0  0  0  0  0  0  0  0  0  0  0
   -5.3899   -6.5665    0.0000 C   0  0  0  0  0  0  0  0  0  0  0  0
   -6.0000   -5.1962    0.0000 C   0  0  0  0  0  0  0  0  0  0  0  0
   -5.2500   -3.8971    0.0000 N   0  0  0  0  0  0  0  0  0  0  0  0
   -3.7500   -3.8971    0.0000 C   0  0  0  0  0  0  0  0  0  0  0  0
   -3.0000   -5.1962    0.0000 O   0  0  0  0  0  0  0  0  0  0  0  0
   -3.0000   -2.5981    0.0000 N   0  0  0  0  0  0  0  0  0  0  0  0
   -1.5000   -2.5981    0.0000 C   0  0  0  0  0  0  0  0  0  0  0  0
   -0.7500   -3.8971    0.0000 C   0  0  0  0  0  0  0  0  0  0  0  0
    0.7500   -3.8971    0.0000 C   0  0  0  0  0  0  0  0  0  0  0  0
    1.5000   -2.5981    0.0000 C   0  0  0  0  0  0  0  0  0  0  0  0
    0.7500   -1.2990    0.0000 C   0  0  0  0  0  0  0  0  0  0  0  0
    1.5000    0.0000    0.0000 C   0  0  0  0  0  0  0  0  0  0  0  0
    0.7500    1.2990    0.0000 C   0  0  0  0  0  0  0  0  0  0  0  0
   -0.7500    1.2990    0.0000 C   0  0  0  0  0  0  0  0  0  0  0  0
   -1.5000    0.0000    0.0000 C   0  0  0  0  0  0  0  0  0  0  0  0
   -0.7500   -1.2990    0.0000 C   0  0  0  0  0  0  0  0  0  0  0  0
   -7.4918   -5.3529    0.0000 N   0  0  0  0  0  0  0  0  0  0  0  0
   -7.8037   -6.8202    0.0000 N   0  0  0  0  0  0  0  0  0  0  0  0
   -8.4955   -4.2382    0.0000 C   0  0  0  0  0  0  0  0  0  0  0  0
   -8.0320   -2.8116    0.0000 C   0  0  0  0  0  0  0  0  0  0  0  0
   -9.0356   -1.6969    0.0000 C   0  0  0  0  0  0  0  0  0  0  0  0
  -10.5029   -2.0088    0.0000 C   0  0  0  0  0  0  0  0  0  0  0  0
  -10.9664   -3.4354    0.0000 C   0  0  0  0  0  0  0  0  0  0  0  0
   -9.9627   -4.5501    0.0000 C   0  0  0  0  0  0  0  0  0  0  0  0
  -12.4336   -3.7472    0.0000 C   0  0  0  0  0  0  0  0  0  0  0  0
  -12.8971   -5.1738    0.0000 O   0  0  0  0  0  0  0  0  0  0  0  0
  -13.4373   -2.6325    0.0000 N   0  0  0  0  0  0  0  0  0  0  0  0
  -14.9045   -2.9444    0.0000 C   0  0  0  0  0  0  0  0  0  0  0  0
  -15.9082   -1.8297    0.0000 C   0  0  0  0  0  0  0  0  0  0  0  0
  -17.3755   -2.1415    0.0000 C   0  0  0  0  0  0  0  0  0  0  0  0
  -18.3791   -1.0268    0.0000 C   0  0  0  0  0  0  0  0  0  0  0  0
  -19.8464   -1.3387    0.0000 O   0  0  0  0  0  0  0  0  0  0  0  0
  1  2  1  0
  2  3  1  0
  2  4  1  0
  2  5  1  0
  5  6  1  0
  6  7  2  0
  7  8  1  0
  8  9  1  0
  9 10  2  0
  9 11  1  0
 11 12  1  0
 12 13  2  0
 13 14  1  0
 14 15  2  0
 15 16  1  0
 16 17  2  0
 17 18  1  0
 18 19  2  0
 19 20  1  0
 20 21  2  0
  7 22  1  0
 22 23  1  0
 22 24  1  0
 24 25  2  0
 25 26  1  0
 26 27  2  0
 27 28  1  0
 28 29  2  0
 28 30  1  0
 30 31  2  0
 30 32  1  0
 32 33  1  0
 33 34  1  0
 34 35  1  0
 35 36  1  0
 36 37  1  0
 23  5  2  0
 21 12  1  0
 21 16  1  0
 29 24  1  0
M  END
>  <Molecule>  (531) 
CHEMBL1994977

>  <Standard Type>  (531) 
Ki

>  <Standard Relation>  (531) 
>

>  <Standard Value>  (531) 
5011.87

>  <Standard Units>  (531) 
nM

>  <pChEMBL Value>  (531) 
nan

>  <Comment>  (531) 
inactive

>  <Compound Key>  (531) 
SID103904840

>  <Assay>  (531) 
CHEMBL1963742

>  <Assay Description>  (531) 
PUBCHEM_BIOASSAY: Navigating the Kinome. (Class of assay: other) Panel member name: JAK3

>  <BAO Format>  (531) 
assay format

>  <Target>  (531) 
CHEMBL2148

>  <Target Pref. Name>  (531) 
Tyrosine-protein kinase JAK3

>  <Target Organism>  (531) 
Homo sapiens

>  <Target Type>  (531) 
SINGLE PROTEIN

>  <Document>  (531) 
CHEMBL1201862

>  <Source>  (531) 
PubChem BioAssays

>  <Max Phase>  (531) 
0

>  <#Ro5 Violations>  (531) 
1

>  <Molecular Weight>  (531) 
499.62

>  <Ligand Efficiency BEI>  (531) 
nan

>  <Ligand Efficiency LE>  (531) 
nan

>  <Ligand Efficiency LLE>  (531) 
nan

>  <Ligand Efficiency SEI>  (531) 
nan

>  <ALogP>  (531) 
5.47

>  <Assay Organism>  (531) 
nan

>  <Assay Tissue ChEMBL ID>  (531) 
nan

>  <Assay Tissue Name>  (531) 
nan

>  <Assay Cell Type>  (531) 
nan

>  <Assay Subcellular Fraction>  (531) 
nan

>  <Organism Tax ID>  (531) 
9606

>  <BAO Format ID>  (531) 
BAO_0000019

>  <Published Type>  (531) 
nan

>  <Published Relation>  (531) 
nan

>  <Published Value>  (531) 
nan

>  <Published Units>  (531) 
nan

>  <Canonical Smiles>  (531) 
CC(C)(C)c1cc(NC(=O)Nc2cccc3ccccc23)n(n1)c4cccc(c4)C(=O)NCCCCO

>  <Data Validity Comment>  (531) 
nan

>  <Document Journal>  (531) 
nan

>  <Document Year>  (531) 
nan

>  <SRC ID>  (531) 
7

>  <UO Units>  (531) 
UO_0000065

>  <Potential Duplicate>  (531) 
False

>  <Class>  (531) 
0

$$$$

     RDKit          2D

 33 38  0  0  0  0  0  0  0  0999 V2000
    3.0000    0.0000    0.0000 O   0  0  0  0  0  0  0  0  0  0  0  0
    1.5000    0.0000    0.0000 C   0  0  0  0  0  0  0  0  0  0  0  0
    0.7500   -1.2990    0.0000 C   0  0  0  0  0  0  0  0  0  0  0  0
   -0.7500   -1.2990    0.0000 C   0  0  0  0  0  0  0  0  0  0  0  0
   -1.5000    0.0000    0.0000 C   0  0  0  0  0  0  0  0  0  0  0  0
   -2.9672    0.3119    0.0000 N   0  0  0  0  0  0  0  0  0  0  0  0
   -3.1240    1.8037    0.0000 C   0  0  0  0  0  0  0  0  0  0  0  0
   -1.7537    2.4138    0.0000 N   0  0  0  0  0  0  0  0  0  0  0  0
   -0.7500    1.2990    0.0000 C   0  0  0  0  0  0  0  0  0  0  0  0
    0.7500    1.2990    0.0000 C   0  0  0  0  0  0  0  0  0  0  0  0
   -4.4231    2.5537    0.0000 C   0  0  0  0  0  0  0  0  0  0  0  0
   -4.4231    4.0537    0.0000 C   0  0  0  0  0  0  0  0  0  0  0  0
   -5.7221    4.8037    0.0000 C   0  0  0  0  0  0  0  0  0  0  0  0
   -7.0211    4.0537    0.0000 C   0  0  0  0  0  0  0  0  0  0  0  0
   -8.3202    4.8037    0.0000 S   0  0  0  0  0  0  0  0  0  0  0  0
   -8.3202    6.3037    0.0000 C   0  0  0  0  0  0  0  0  0  0  0  0
   -7.0211    7.0537    0.0000 C   0  0  0  0  0  0  0  0  0  0  0  0
   -7.0211    8.5537    0.0000 C   0  0  0  0  0  0  0  0  0  0  0  0
   -8.3202    9.3037    0.0000 C   0  0  0  0  0  0  0  0  0  0  0  0
   -9.6192    8.5537    0.0000 C   0  0  0  0  0  0  0  0  0  0  0  0
   -9.6192    7.0537    0.0000 C   0  0  0  0  0  0  0  0  0  0  0  0
   -8.3202   10.8037    0.0000 C   0  0  0  0  0  0  0  0  0  0  0  0
   -7.1066   11.6853    0.0000 N   0  0  0  0  0  0  0  0  0  0  0  0
   -7.5702   13.1119    0.0000 C   0  0  0  0  0  0  0  0  0  0  0  0
   -6.8202   14.4110    0.0000 C   0  0  0  0  0  0  0  0  0  0  0  0
   -7.5702   15.7100    0.0000 C   0  0  0  0  0  0  0  0  0  0  0  0
   -9.0702   15.7100    0.0000 C   0  0  0  0  0  0  0  0  0  0  0  0
   -9.8202   17.0090    0.0000 O   0  0  0  0  0  0  0  0  0  0  0  0
   -9.8202   14.4110    0.0000 C   0  0  0  0  0  0  0  0  0  0  0  0
   -9.0702   13.1119    0.0000 C   0  0  0  0  0  0  0  0  0  0  0  0
   -9.5337   11.6853    0.0000 N   0  0  0  0  0  0  0  0  0  0  0  0
   -7.0211    2.5537    0.0000 C   0  0  0  0  0  0  0  0  0  0  0  0
   -5.7221    1.8037    0.0000 C   0  0  0  0  0  0  0  0  0  0  0  0
  1  2  1  0
  2  3  2  0
  3  4  1  0
  4  5  2  0
  5  6  1  0
  6  7  2  0
  7  8  1  0
  8  9  1  0
  9 10  2  0
  7 11  1  0
 11 12  2  0
 12 13  1  0
 13 14  2  0
 14 15  1  0
 15 16  1  0
 16 17  2  0
 17 18  1  0
 18 19  2  0
 19 20  1  0
 20 21  2  0
 19 22  1  0
 22 23  2  0
 23 24  1  0
 24 25  2  0
 25 26  1  0
 26 27  2  0
 27 28  1  0
 27 29  1  0
 29 30  2  0
 30 31  1  0
 14 32  1  0
 32 33  2  0
 10  2  1  0
  9  5  1  0
 33 11  1  0
 21 16  1  0
 31 22  1  0
 30 24  1  0
M  END
>  <Molecule>  (532) 
CHEMBL2001149

>  <Standard Type>  (532) 
Ki

>  <Standard Relation>  (532) 
>

>  <Standard Value>  (532) 
5011.87

>  <Standard Units>  (532) 
nM

>  <pChEMBL Value>  (532) 
nan

>  <Comment>  (532) 
inactive

>  <Compound Key>  (532) 
SID103905183

>  <Assay>  (532) 
CHEMBL1963742

>  <Assay Description>  (532) 
PUBCHEM_BIOASSAY: Navigating the Kinome. (Class of assay: other) Panel member name: JAK3

>  <BAO Format>  (532) 
assay format

>  <Target>  (532) 
CHEMBL2148

>  <Target Pref. Name>  (532) 
Tyrosine-protein kinase JAK3

>  <Target Organism>  (532) 
Homo sapiens

>  <Target Type>  (532) 
SINGLE PROTEIN

>  <Document>  (532) 
CHEMBL1201862

>  <Source>  (532) 
PubChem BioAssays

>  <Max Phase>  (532) 
0

>  <#Ro5 Violations>  (532) 
1

>  <Molecular Weight>  (532) 
450.52

>  <Ligand Efficiency BEI>  (532) 
nan

>  <Ligand Efficiency LE>  (532) 
nan

>  <Ligand Efficiency LLE>  (532) 
nan

>  <Ligand Efficiency SEI>  (532) 
nan

>  <ALogP>  (532) 
6.34

>  <Assay Organism>  (532) 
nan

>  <Assay Tissue ChEMBL ID>  (532) 
nan

>  <Assay Tissue Name>  (532) 
nan

>  <Assay Cell Type>  (532) 
nan

>  <Assay Subcellular Fraction>  (532) 
nan

>  <Organism Tax ID>  (532) 
9606

>  <BAO Format ID>  (532) 
BAO_0000019

>  <Published Type>  (532) 
nan

>  <Published Relation>  (532) 
nan

>  <Published Value>  (532) 
nan

>  <Published Units>  (532) 
nan

>  <Canonical Smiles>  (532) 
Oc1ccc2nc([nH]c2c1)c3ccc(Sc4ccc(cc4)c5nc6ccc(O)cc6[nH]5)cc3

>  <Data Validity Comment>  (532) 
nan

>  <Document Journal>  (532) 
nan

>  <Document Year>  (532) 
nan

>  <SRC ID>  (532) 
7

>  <UO Units>  (532) 
UO_0000065

>  <Potential Duplicate>  (532) 
False

>  <Class>  (532) 
0

$$$$

     RDKit          2D

 18 20  0  0  0  0  0  0  0  0999 V2000
   -2.5981   -5.1073    0.0000 O   0  0  0  0  0  0  0  0  0  0  0  0
   -1.2990   -5.8573    0.0000 C   0  0  0  0  0  0  0  0  0  0  0  0
   -1.2990   -7.3573    0.0000 C   0  0  0  0  0  0  0  0  0  0  0  0
   -2.5981   -8.1073    0.0000 C   0  0  0  0  0  0  0  0  0  0  0  0
   -2.7549   -9.5991    0.0000 C   0  0  0  0  0  0  0  0  0  0  0  0
   -4.2221   -9.9110    0.0000 C   0  0  0  0  0  0  0  0  0  0  0  0
   -4.9721   -8.6119    0.0000 C   0  0  0  0  0  0  0  0  0  0  0  0
   -3.9684   -7.4972    0.0000 S   0  0  0  0  0  0  0  0  0  0  0  0
   -0.0000   -5.1073    0.0000 N   0  0  0  0  0  0  0  0  0  0  0  0
   -0.0000   -3.6073    0.0000 C   0  0  0  0  0  0  0  0  0  0  0  0
    1.2135   -2.7256    0.0000 N   0  0  0  0  0  0  0  0  0  0  0  0
    0.7500   -1.2990    0.0000 C   0  0  0  0  0  0  0  0  0  0  0  0
    1.5000    0.0000    0.0000 C   0  0  0  0  0  0  0  0  0  0  0  0
    0.7500    1.2990    0.0000 C   0  0  0  0  0  0  0  0  0  0  0  0
   -0.7500    1.2990    0.0000 C   0  0  0  0  0  0  0  0  0  0  0  0
   -1.5000    0.0000    0.0000 C   0  0  0  0  0  0  0  0  0  0  0  0
   -0.7500   -1.2990    0.0000 C   0  0  0  0  0  0  0  0  0  0  0  0
   -1.2135   -2.7256    0.0000 S   0  0  0  0  0  0  0  0  0  0  0  0
  1  2  2  0
  2  3  1  0
  3  4  1  0
  4  5  2  0
  5  6  1  0
  6  7  2  0
  7  8  1  0
  2  9  1  0
  9 10  1  0
 10 11  2  0
 11 12  1  0
 12 13  2  0
 13 14  1  0
 14 15  2  0
 15 16  1  0
 16 17  2  0
 17 18  1  0
  8  4  1  0
 18 10  1  0
 17 12  1  0
M  END
>  <Molecule>  (533) 
CHEMBL1421720

>  <Standard Type>  (533) 
Ki

>  <Standard Relation>  (533) 
>

>  <Standard Value>  (533) 
5011.87

>  <Standard Units>  (533) 
nM

>  <pChEMBL Value>  (533) 
nan

>  <Comment>  (533) 
inactive

>  <Compound Key>  (533) 
SID103904704

>  <Assay>  (533) 
CHEMBL1963742

>  <Assay Description>  (533) 
PUBCHEM_BIOASSAY: Navigating the Kinome. (Class of assay: other) Panel member name: JAK3

>  <BAO Format>  (533) 
assay format

>  <Target>  (533) 
CHEMBL2148

>  <Target Pref. Name>  (533) 
Tyrosine-protein kinase JAK3

>  <Target Organism>  (533) 
Homo sapiens

>  <Target Type>  (533) 
SINGLE PROTEIN

>  <Document>  (533) 
CHEMBL1201862

>  <Source>  (533) 
PubChem BioAssays

>  <Max Phase>  (533) 
0

>  <#Ro5 Violations>  (533) 
0

>  <Molecular Weight>  (533) 
274.37

>  <Ligand Efficiency BEI>  (533) 
nan

>  <Ligand Efficiency LE>  (533) 
nan

>  <Ligand Efficiency LLE>  (533) 
nan

>  <Ligand Efficiency SEI>  (533) 
nan

>  <ALogP>  (533) 
3.54

>  <Assay Organism>  (533) 
nan

>  <Assay Tissue ChEMBL ID>  (533) 
nan

>  <Assay Tissue Name>  (533) 
nan

>  <Assay Cell Type>  (533) 
nan

>  <Assay Subcellular Fraction>  (533) 
nan

>  <Organism Tax ID>  (533) 
9606

>  <BAO Format ID>  (533) 
BAO_0000019

>  <Published Type>  (533) 
nan

>  <Published Relation>  (533) 
nan

>  <Published Value>  (533) 
nan

>  <Published Units>  (533) 
nan

>  <Canonical Smiles>  (533) 
O=C(Cc1cccs1)Nc2nc3ccccc3s2

>  <Data Validity Comment>  (533) 
nan

>  <Document Journal>  (533) 
nan

>  <Document Year>  (533) 
nan

>  <SRC ID>  (533) 
7

>  <UO Units>  (533) 
UO_0000065

>  <Potential Duplicate>  (533) 
False

>  <Class>  (533) 
0

$$$$

     RDKit          2D

 21 23  0  0  0  0  0  0  0  0999 V2000
    6.0000   -2.5981    0.0000 O   0  0  0  0  0  0  0  0  0  0  0  0
    5.2500   -1.2990    0.0000 C   0  0  0  0  0  0  0  0  0  0  0  0
    3.7500   -1.2990    0.0000 C   0  0  0  0  0  0  0  0  0  0  0  0
    3.0000   -2.5981    0.0000 C   0  0  0  0  0  0  0  0  0  0  0  0
    3.7500   -3.8971    0.0000 O   0  0  0  0  0  0  0  0  0  0  0  0
    3.0000    0.0000    0.0000 N   0  0  0  0  0  0  0  0  0  0  0  0
    1.5000    0.0000    0.0000 C   0  0  0  0  0  0  0  0  0  0  0  0
    0.7500   -1.2990    0.0000 N   0  0  0  0  0  0  0  0  0  0  0  0
   -0.7500   -1.2990    0.0000 C   0  0  0  0  0  0  0  0  0  0  0  0
   -1.5000    0.0000    0.0000 N   0  0  0  0  0  0  0  0  0  0  0  0
   -0.7500    1.2990    0.0000 C   0  0  0  0  0  0  0  0  0  0  0  0
   -1.2135    2.7256    0.0000 N   0  0  0  0  0  0  0  0  0  0  0  0
   -0.0000    3.6073    0.0000 C   0  0  0  0  0  0  0  0  0  0  0  0
    1.2135    2.7256    0.0000 C   0  0  0  0  0  0  0  0  0  0  0  0
    2.6401    3.1891    0.0000 C   0  0  0  0  0  0  0  0  0  0  0  0
    3.7548    2.1855    0.0000 C   0  0  0  0  0  0  0  0  0  0  0  0
    5.1814    2.6490    0.0000 C   0  0  0  0  0  0  0  0  0  0  0  0
    5.4933    4.1162    0.0000 C   0  0  0  0  0  0  0  0  0  0  0  0
    4.3786    5.1199    0.0000 C   0  0  0  0  0  0  0  0  0  0  0  0
    2.9520    4.6564    0.0000 C   0  0  0  0  0  0  0  0  0  0  0  0
    0.7500    1.2990    0.0000 C   0  0  0  0  0  0  0  0  0  0  0  0
  1  2  1  0
  2  3  1  0
  3  4  1  0
  4  5  1  0
  3  6  1  0
  6  7  1  0
  7  8  2  0
  8  9  1  0
  9 10  2  0
 10 11  1  0
 11 12  1  0
 12 13  1  0
 13 14  2  0
 14 15  1  0
 15 16  2  0
 16 17  1  0
 17 18  2  0
 18 19  1  0
 19 20  2  0
 14 21  1  0
 21  7  1  0
 21 11  2  0
 20 15  1  0
M  END
>  <Molecule>  (534) 
CHEMBL1992922

>  <Standard Type>  (534) 
Ki

>  <Standard Relation>  (534) 
=

>  <Standard Value>  (534) 
398.11

>  <Standard Units>  (534) 
nM

>  <pChEMBL Value>  (534) 
6.4

>  <Comment>  (534) 
active

>  <Compound Key>  (534) 
SID103904209

>  <Assay>  (534) 
CHEMBL1963742

>  <Assay Description>  (534) 
PUBCHEM_BIOASSAY: Navigating the Kinome. (Class of assay: other) Panel member name: JAK3

>  <BAO Format>  (534) 
assay format

>  <Target>  (534) 
CHEMBL2148

>  <Target Pref. Name>  (534) 
Tyrosine-protein kinase JAK3

>  <Target Organism>  (534) 
Homo sapiens

>  <Target Type>  (534) 
SINGLE PROTEIN

>  <Document>  (534) 
CHEMBL1201862

>  <Source>  (534) 
PubChem BioAssays

>  <Max Phase>  (534) 
0

>  <#Ro5 Violations>  (534) 
0

>  <Molecular Weight>  (534) 
284.32

>  <Ligand Efficiency BEI>  (534) 
nan

>  <Ligand Efficiency LE>  (534) 
nan

>  <Ligand Efficiency LLE>  (534) 
nan

>  <Ligand Efficiency SEI>  (534) 
nan

>  <ALogP>  (534) 
1.39

>  <Assay Organism>  (534) 
nan

>  <Assay Tissue ChEMBL ID>  (534) 
nan

>  <Assay Tissue Name>  (534) 
nan

>  <Assay Cell Type>  (534) 
nan

>  <Assay Subcellular Fraction>  (534) 
nan

>  <Organism Tax ID>  (534) 
9606

>  <BAO Format ID>  (534) 
BAO_0000019

>  <Published Type>  (534) 
nan

>  <Published Relation>  (534) 
nan

>  <Published Value>  (534) 
nan

>  <Published Units>  (534) 
nan

>  <Canonical Smiles>  (534) 
OCC(CO)Nc1ncnc2[nH]cc(c3ccccc3)c12

>  <Data Validity Comment>  (534) 
nan

>  <Document Journal>  (534) 
nan

>  <Document Year>  (534) 
nan

>  <SRC ID>  (534) 
7

>  <UO Units>  (534) 
UO_0000065

>  <Potential Duplicate>  (534) 
False

>  <Class>  (534) 
1

$$$$

     RDKit          2D

 19 20  0  0  0  0  0  0  0  0999 V2000
   -8.2500   -6.4952    0.0000 C   0  0  0  0  0  0  0  0  0  0  0  0
   -7.5000   -5.1962    0.0000 C   0  0  0  0  0  0  0  0  0  0  0  0
   -6.0000   -5.1962    0.0000 N   0  0  0  0  0  0  0  0  0  0  0  0
   -5.2500   -6.4952    0.0000 C   0  0  0  0  0  0  0  0  0  0  0  0
   -6.0000   -7.7942    0.0000 C   0  0  0  0  0  0  0  0  0  0  0  0
   -5.2500   -3.8971    0.0000 C   0  0  0  0  0  0  0  0  0  0  0  0
   -3.7500   -3.8971    0.0000 C   0  0  0  0  0  0  0  0  0  0  0  0
   -3.0000   -2.5981    0.0000 N   0  0  0  0  0  0  0  0  0  0  0  0
   -1.5000   -2.5981    0.0000 C   0  0  0  0  0  0  0  0  0  0  0  0
   -0.7500   -3.8971    0.0000 C   0  0  0  0  0  0  0  0  0  0  0  0
    0.7500   -3.8971    0.0000 C   0  0  0  0  0  0  0  0  0  0  0  0
    1.5000   -2.5981    0.0000 C   0  0  0  0  0  0  0  0  0  0  0  0
    3.0000   -2.5981    0.0000 O   0  0  0  0  0  0  0  0  0  0  0  0
    0.7500   -1.2990    0.0000 C   0  0  0  0  0  0  0  0  0  0  0  0
    1.5000    0.0000    0.0000 C   0  0  0  0  0  0  0  0  0  0  0  0
    0.7500    1.2990    0.0000 C   0  0  0  0  0  0  0  0  0  0  0  0
   -0.7500    1.2990    0.0000 C   0  0  0  0  0  0  0  0  0  0  0  0
   -1.5000    0.0000    0.0000 C   0  0  0  0  0  0  0  0  0  0  0  0
   -0.7500   -1.2990    0.0000 C   0  0  0  0  0  0  0  0  0  0  0  0
  1  2  1  0
  2  3  1  0
  3  4  1  0
  4  5  1  0
  3  6  1  0
  6  7  1  0
  7  8  1  0
  8  9  1  0
  9 10  2  0
 10 11  1  0
 11 12  2  0
 12 13  1  0
 12 14  1  0
 14 15  2  0
 15 16  1  0
 16 17  2  0
 17 18  1  0
 18 19  2  0
 19  9  1  0
 19 14  1  0
M  END
>  <Molecule>  (535) 
CHEMBL576113

>  <Standard Type>  (535) 
Ki

>  <Standard Relation>  (535) 
>

>  <Standard Value>  (535) 
5011.87

>  <Standard Units>  (535) 
nM

>  <pChEMBL Value>  (535) 
nan

>  <Comment>  (535) 
inactive

>  <Compound Key>  (535) 
SID103905072

>  <Assay>  (535) 
CHEMBL1963742

>  <Assay Description>  (535) 
PUBCHEM_BIOASSAY: Navigating the Kinome. (Class of assay: other) Panel member name: JAK3

>  <BAO Format>  (535) 
assay format

>  <Target>  (535) 
CHEMBL2148

>  <Target Pref. Name>  (535) 
Tyrosine-protein kinase JAK3

>  <Target Organism>  (535) 
Homo sapiens

>  <Target Type>  (535) 
SINGLE PROTEIN

>  <Document>  (535) 
CHEMBL1201862

>  <Source>  (535) 
PubChem BioAssays

>  <Max Phase>  (535) 
0

>  <#Ro5 Violations>  (535) 
0

>  <Molecular Weight>  (535) 
258.36

>  <Ligand Efficiency BEI>  (535) 
nan

>  <Ligand Efficiency LE>  (535) 
nan

>  <Ligand Efficiency LLE>  (535) 
nan

>  <Ligand Efficiency SEI>  (535) 
nan

>  <ALogP>  (535) 
3.3

>  <Assay Organism>  (535) 
nan

>  <Assay Tissue ChEMBL ID>  (535) 
nan

>  <Assay Tissue Name>  (535) 
nan

>  <Assay Cell Type>  (535) 
nan

>  <Assay Subcellular Fraction>  (535) 
nan

>  <Organism Tax ID>  (535) 
9606

>  <BAO Format ID>  (535) 
BAO_0000019

>  <Published Type>  (535) 
nan

>  <Published Relation>  (535) 
nan

>  <Published Value>  (535) 
nan

>  <Published Units>  (535) 
nan

>  <Canonical Smiles>  (535) 
CCN(CC)CCNc1ccc(O)c2ccccc12

>  <Data Validity Comment>  (535) 
nan

>  <Document Journal>  (535) 
nan

>  <Document Year>  (535) 
nan

>  <SRC ID>  (535) 
7

>  <UO Units>  (535) 
UO_0000065

>  <Potential Duplicate>  (535) 
False

>  <Class>  (535) 
0

$$$$

     RDKit          2D

 28 30  0  0  0  0  0  0  0  0999 V2000
   -0.0000  -10.3923    0.0000 O   0  0  0  0  0  0  0  0  0  0  0  0
    0.7500   -9.0933    0.0000 C   0  0  0  0  0  0  0  0  0  0  0  0
    1.5000   -7.7942    0.0000 C   0  0  0  0  0  0  0  0  0  0  0  0
    3.0000   -7.7942    0.0000 O   0  0  0  0  0  0  0  0  0  0  0  0
    0.7500   -6.4952    0.0000 N   0  0  0  0  0  0  0  0  0  0  0  0
    1.5000   -5.1962    0.0000 N   0  0  0  0  0  0  0  0  0  0  0  0
    0.7500   -3.8971    0.0000 C   0  0  0  0  0  0  0  0  0  0  0  0
   -0.7500   -3.8971    0.0000 S   0  0  0  0  0  0  0  0  0  0  0  0
    1.5000   -2.5981    0.0000 N   0  0  0  0  0  0  0  0  0  0  0  0
    0.7500   -1.2990    0.0000 C   0  0  0  0  0  0  0  0  0  0  0  0
    1.5000    0.0000    0.0000 C   0  0  0  0  0  0  0  0  0  0  0  0
    0.7500    1.2990    0.0000 C   0  0  0  0  0  0  0  0  0  0  0  0
   -0.7500    1.2990    0.0000 C   0  0  0  0  0  0  0  0  0  0  0  0
   -1.5000    2.5981    0.0000 Cl  0  0  0  0  0  0  0  0  0  0  0  0
   -1.5000    0.0000    0.0000 C   0  0  0  0  0  0  0  0  0  0  0  0
   -0.7500   -1.2990    0.0000 C   0  0  0  0  0  0  0  0  0  0  0  0
   -0.5490   -8.3433    0.0000 C   0  0  0  0  0  0  0  0  0  0  0  0
   -0.5490   -6.8433    0.0000 C   0  0  0  0  0  0  0  0  0  0  0  0
   -1.8481   -6.0933    0.0000 C   0  0  0  0  0  0  0  0  0  0  0  0
   -3.1471   -6.8433    0.0000 C   0  0  0  0  0  0  0  0  0  0  0  0
   -3.1471   -8.3433    0.0000 C   0  0  0  0  0  0  0  0  0  0  0  0
   -1.8481   -9.0933    0.0000 C   0  0  0  0  0  0  0  0  0  0  0  0
    2.0490   -9.8433    0.0000 C   0  0  0  0  0  0  0  0  0  0  0  0
    2.0490  -11.3433    0.0000 C   0  0  0  0  0  0  0  0  0  0  0  0
    3.3481  -12.0933    0.0000 C   0  0  0  0  0  0  0  0  0  0  0  0
    4.6471  -11.3433    0.0000 C   0  0  0  0  0  0  0  0  0  0  0  0
    4.6471   -9.8433    0.0000 C   0  0  0  0  0  0  0  0  0  0  0  0
    3.3481   -9.0933    0.0000 C   0  0  0  0  0  0  0  0  0  0  0  0
  1  2  1  0
  2  3  1  0
  3  4  2  0
  3  5  1  0
  5  6  1  0
  6  7  1  0
  7  8  2  0
  7  9  1  0
  9 10  1  0
 10 11  2  0
 11 12  1  0
 12 13  2  0
 13 14  1  0
 13 15  1  0
 15 16  2  0
  2 17  1  0
 17 18  2  0
 18 19  1  0
 19 20  2  0
 20 21  1  0
 21 22  2  0
  2 23  1  0
 23 24  2  0
 24 25  1  0
 25 26  2  0
 26 27  1  0
 27 28  2  0
 16 10  1  0
 22 17  1  0
 28 23  1  0
M  END
>  <Molecule>  (536) 
CHEMBL1966722

>  <Standard Type>  (536) 
Ki

>  <Standard Relation>  (536) 
>

>  <Standard Value>  (536) 
1584.89

>  <Standard Units>  (536) 
nM

>  <pChEMBL Value>  (536) 
nan

>  <Comment>  (536) 
inactive

>  <Compound Key>  (536) 
SID103904450

>  <Assay>  (536) 
CHEMBL1963742

>  <Assay Description>  (536) 
PUBCHEM_BIOASSAY: Navigating the Kinome. (Class of assay: other) Panel member name: JAK3

>  <BAO Format>  (536) 
assay format

>  <Target>  (536) 
CHEMBL2148

>  <Target Pref. Name>  (536) 
Tyrosine-protein kinase JAK3

>  <Target Organism>  (536) 
Homo sapiens

>  <Target Type>  (536) 
SINGLE PROTEIN

>  <Document>  (536) 
CHEMBL1201862

>  <Source>  (536) 
PubChem BioAssays

>  <Max Phase>  (536) 
0

>  <#Ro5 Violations>  (536) 
0

>  <Molecular Weight>  (536) 
411.91

>  <Ligand Efficiency BEI>  (536) 
nan

>  <Ligand Efficiency LE>  (536) 
nan

>  <Ligand Efficiency LLE>  (536) 
nan

>  <Ligand Efficiency SEI>  (536) 
nan

>  <ALogP>  (536) 
3.59

>  <Assay Organism>  (536) 
nan

>  <Assay Tissue ChEMBL ID>  (536) 
nan

>  <Assay Tissue Name>  (536) 
nan

>  <Assay Cell Type>  (536) 
nan

>  <Assay Subcellular Fraction>  (536) 
nan

>  <Organism Tax ID>  (536) 
9606

>  <BAO Format ID>  (536) 
BAO_0000019

>  <Published Type>  (536) 
nan

>  <Published Relation>  (536) 
nan

>  <Published Value>  (536) 
nan

>  <Published Units>  (536) 
nan

>  <Canonical Smiles>  (536) 
OC(C(=O)NNC(=S)Nc1ccc(Cl)cc1)(c2ccccc2)c3ccccc3

>  <Data Validity Comment>  (536) 
nan

>  <Document Journal>  (536) 
nan

>  <Document Year>  (536) 
nan

>  <SRC ID>  (536) 
7

>  <UO Units>  (536) 
UO_0000065

>  <Potential Duplicate>  (536) 
False

>  <Class>  (536) 
0

$$$$

     RDKit          2D

 26 29  0  0  0  0  0  0  0  0999 V2000
    3.1755    9.7730    0.0000 C   0  0  0  0  0  0  0  0  0  0  0  0
    4.1791    8.6583    0.0000 C   0  0  0  0  0  0  0  0  0  0  0  0
    3.7156    7.2317    0.0000 O   0  0  0  0  0  0  0  0  0  0  0  0
    4.7193    6.1170    0.0000 C   0  0  0  0  0  0  0  0  0  0  0  0
    6.1865    6.4289    0.0000 C   0  0  0  0  0  0  0  0  0  0  0  0
    7.1902    5.3142    0.0000 C   0  0  0  0  0  0  0  0  0  0  0  0
    6.7267    3.8876    0.0000 C   0  0  0  0  0  0  0  0  0  0  0  0
    5.2595    3.5757    0.0000 C   0  0  0  0  0  0  0  0  0  0  0  0
    4.2558    4.6904    0.0000 C   0  0  0  0  0  0  0  0  0  0  0  0
    2.7886    4.3786    0.0000 C   0  0  0  0  0  0  0  0  0  0  0  0
    1.7849    5.4933    0.0000 C   0  0  0  0  0  0  0  0  0  0  0  0
    0.3177    5.1814    0.0000 C   0  0  0  0  0  0  0  0  0  0  0  0
   -0.1459    3.7548    0.0000 C   0  0  0  0  0  0  0  0  0  0  0  0
    0.8578    2.6401    0.0000 C   0  0  0  0  0  0  0  0  0  0  0  0
    2.3250    2.9520    0.0000 C   0  0  0  0  0  0  0  0  0  0  0  0
    0.3943    1.2135    0.0000 C   0  0  0  0  0  0  0  0  0  0  0  0
    1.2760    0.0000    0.0000 N   0  0  0  0  0  0  0  0  0  0  0  0
    0.3943   -1.2135    0.0000 N   0  0  0  0  0  0  0  0  0  0  0  0
   -1.0323   -0.7500    0.0000 C   0  0  0  0  0  0  0  0  0  0  0  0
   -2.3313   -1.5000    0.0000 N   0  0  0  0  0  0  0  0  0  0  0  0
   -3.6304   -0.7500    0.0000 C   0  0  0  0  0  0  0  0  0  0  0  0
   -4.9294   -1.5000    0.0000 O   0  0  0  0  0  0  0  0  0  0  0  0
   -3.6304    0.7500    0.0000 C   0  0  0  0  0  0  0  0  0  0  0  0
   -2.3313    1.5000    0.0000 C   0  0  0  0  0  0  0  0  0  0  0  0
   -2.3313    3.0000    0.0000 C   0  0  0  0  0  0  0  0  0  0  0  0
   -1.0323    0.7500    0.0000 C   0  0  0  0  0  0  0  0  0  0  0  0
  1  2  1  0
  2  3  1  0
  3  4  1  0
  4  5  2  0
  5  6  1  0
  6  7  2  0
  7  8  1  0
  8  9  2  0
  9 10  1  0
 10 11  2  0
 11 12  1  0
 12 13  2  0
 13 14  1  0
 14 15  2  0
 14 16  1  0
 16 17  2  0
 17 18  1  0
 18 19  1  0
 19 20  2  0
 20 21  1  0
 21 22  1  0
 21 23  2  0
 23 24  1  0
 24 25  1  0
 24 26  2  0
  9  4  1  0
 15 10  1  0
 26 16  1  0
 26 19  1  0
M  END
>  <Molecule>  (537) 
CHEMBL1983070

>  <Standard Type>  (537) 
Ki

>  <Standard Relation>  (537) 
>

>  <Standard Value>  (537) 
5011.87

>  <Standard Units>  (537) 
nM

>  <pChEMBL Value>  (537) 
nan

>  <Comment>  (537) 
inactive

>  <Compound Key>  (537) 
SID103905399

>  <Assay>  (537) 
CHEMBL1963742

>  <Assay Description>  (537) 
PUBCHEM_BIOASSAY: Navigating the Kinome. (Class of assay: other) Panel member name: JAK3

>  <BAO Format>  (537) 
assay format

>  <Target>  (537) 
CHEMBL2148

>  <Target Pref. Name>  (537) 
Tyrosine-protein kinase JAK3

>  <Target Organism>  (537) 
Homo sapiens

>  <Target Type>  (537) 
SINGLE PROTEIN

>  <Document>  (537) 
CHEMBL1201862

>  <Source>  (537) 
PubChem BioAssays

>  <Max Phase>  (537) 
0

>  <#Ro5 Violations>  (537) 
0

>  <Molecular Weight>  (537) 
345.4

>  <Ligand Efficiency BEI>  (537) 
nan

>  <Ligand Efficiency LE>  (537) 
nan

>  <Ligand Efficiency LLE>  (537) 
nan

>  <Ligand Efficiency SEI>  (537) 
nan

>  <ALogP>  (537) 
4.7

>  <Assay Organism>  (537) 
nan

>  <Assay Tissue ChEMBL ID>  (537) 
nan

>  <Assay Tissue Name>  (537) 
nan

>  <Assay Cell Type>  (537) 
nan

>  <Assay Subcellular Fraction>  (537) 
nan

>  <Organism Tax ID>  (537) 
9606

>  <BAO Format ID>  (537) 
BAO_0000019

>  <Published Type>  (537) 
nan

>  <Published Relation>  (537) 
nan

>  <Published Value>  (537) 
nan

>  <Published Units>  (537) 
nan

>  <Canonical Smiles>  (537) 
CCOc1ccccc1c2cccc(c2)c3n[nH]c4nc(O)cc(C)c34

>  <Data Validity Comment>  (537) 
nan

>  <Document Journal>  (537) 
nan

>  <Document Year>  (537) 
nan

>  <SRC ID>  (537) 
7

>  <UO Units>  (537) 
UO_0000065

>  <Potential Duplicate>  (537) 
False

>  <Class>  (537) 
0

$$$$

     RDKit          2D

 30 33  0  0  0  0  0  0  0  0999 V2000
    3.0000    0.0000    0.0000 N   0  0  0  0  0  0  0  0  0  0  0  0
    1.5000    0.0000    0.0000 C   0  0  0  0  0  0  0  0  0  0  0  0
    0.7500   -1.2990    0.0000 N   0  0  0  0  0  0  0  0  0  0  0  0
   -0.7500   -1.2990    0.0000 C   0  0  0  0  0  0  0  0  0  0  0  0
   -1.5000    0.0000    0.0000 N   0  0  0  0  0  0  0  0  0  0  0  0
   -0.7500    1.2990    0.0000 C   0  0  0  0  0  0  0  0  0  0  0  0
   -1.2135    2.7256    0.0000 O   0  0  0  0  0  0  0  0  0  0  0  0
   -0.0000    3.6073    0.0000 N   0  0  0  0  0  0  0  0  0  0  0  0
    1.2135    2.7256    0.0000 C   0  0  0  0  0  0  0  0  0  0  0  0
    2.6401    3.1891    0.0000 C   0  0  0  0  0  0  0  0  0  0  0  0
    3.7548    2.1855    0.0000 C   0  0  0  0  0  0  0  0  0  0  0  0
    5.1814    2.6490    0.0000 C   0  0  0  0  0  0  0  0  0  0  0  0
    5.4933    4.1162    0.0000 C   0  0  0  0  0  0  0  0  0  0  0  0
    6.9199    4.5797    0.0000 N   0  0  0  0  0  0  0  0  0  0  0  0
    8.0346    3.5760    0.0000 C   0  0  0  0  0  0  0  0  0  0  0  0
    7.7227    2.1088    0.0000 O   0  0  0  0  0  0  0  0  0  0  0  0
    9.4612    4.0396    0.0000 N   0  0  0  0  0  0  0  0  0  0  0  0
   10.5759    3.0359    0.0000 C   0  0  0  0  0  0  0  0  0  0  0  0
   10.2640    1.5686    0.0000 C   0  0  0  0  0  0  0  0  0  0  0  0
   11.3787    0.5649    0.0000 C   0  0  0  0  0  0  0  0  0  0  0  0
   12.8053    1.0285    0.0000 C   0  0  0  0  0  0  0  0  0  0  0  0
   13.1172    2.4957    0.0000 C   0  0  0  0  0  0  0  0  0  0  0  0
   12.0025    3.4994    0.0000 C   0  0  0  0  0  0  0  0  0  0  0  0
   14.5438    2.9592    0.0000 C   0  0  0  0  0  0  0  0  0  0  0  0
   15.9704    3.4227    0.0000 F   0  0  0  0  0  0  0  0  0  0  0  0
   15.0073    1.5326    0.0000 F   0  0  0  0  0  0  0  0  0  0  0  0
   14.0802    4.3858    0.0000 F   0  0  0  0  0  0  0  0  0  0  0  0
    4.3786    5.1199    0.0000 C   0  0  0  0  0  0  0  0  0  0  0  0
    2.9520    4.6564    0.0000 C   0  0  0  0  0  0  0  0  0  0  0  0
    0.7500    1.2990    0.0000 C   0  0  0  0  0  0  0  0  0  0  0  0
  1  2  1  0
  2  3  2  0
  3  4  1  0
  4  5  2  0
  5  6  1  0
  6  7  1  0
  7  8  1  0
  8  9  2  0
  9 10  1  0
 10 11  2  0
 11 12  1  0
 12 13  2  0
 13 14  1  0
 14 15  1  0
 15 16  2  0
 15 17  1  0
 17 18  1  0
 18 19  2  0
 19 20  1  0
 20 21  2  0
 21 22  1  0
 22 23  2  0
 22 24  1  0
 24 25  1  0
 24 26  1  0
 24 27  1  0
 13 28  1  0
 28 29  2  0
  9 30  1  0
 30  2  1  0
 30  6  2  0
 29 10  1  0
 23 18  1  0
M  END
>  <Molecule>  (538) 
CHEMBL213505

>  <Standard Type>  (538) 
Ki

>  <Standard Relation>  (538) 
>

>  <Standard Value>  (538) 
1584.89

>  <Standard Units>  (538) 
nM

>  <pChEMBL Value>  (538) 
nan

>  <Comment>  (538) 
inactive

>  <Compound Key>  (538) 
SID103904357

>  <Assay>  (538) 
CHEMBL1963742

>  <Assay Description>  (538) 
PUBCHEM_BIOASSAY: Navigating the Kinome. (Class of assay: other) Panel member name: JAK3

>  <BAO Format>  (538) 
assay format

>  <Target>  (538) 
CHEMBL2148

>  <Target Pref. Name>  (538) 
Tyrosine-protein kinase JAK3

>  <Target Organism>  (538) 
Homo sapiens

>  <Target Type>  (538) 
SINGLE PROTEIN

>  <Document>  (538) 
CHEMBL1201862

>  <Source>  (538) 
PubChem BioAssays

>  <Max Phase>  (538) 
0

>  <#Ro5 Violations>  (538) 
0

>  <Molecular Weight>  (538) 
414.35

>  <Ligand Efficiency BEI>  (538) 
nan

>  <Ligand Efficiency LE>  (538) 
nan

>  <Ligand Efficiency LLE>  (538) 
nan

>  <Ligand Efficiency SEI>  (538) 
nan

>  <ALogP>  (538) 
4.53

>  <Assay Organism>  (538) 
nan

>  <Assay Tissue ChEMBL ID>  (538) 
nan

>  <Assay Tissue Name>  (538) 
nan

>  <Assay Cell Type>  (538) 
nan

>  <Assay Subcellular Fraction>  (538) 
nan

>  <Organism Tax ID>  (538) 
9606

>  <BAO Format ID>  (538) 
BAO_0000019

>  <Published Type>  (538) 
nan

>  <Published Relation>  (538) 
nan

>  <Published Value>  (538) 
nan

>  <Published Units>  (538) 
nan

>  <Canonical Smiles>  (538) 
Nc1ncnc2onc(c3ccc(NC(=O)Nc4cccc(c4)C(F)(F)F)cc3)c12

>  <Data Validity Comment>  (538) 
nan

>  <Document Journal>  (538) 
nan

>  <Document Year>  (538) 
nan

>  <SRC ID>  (538) 
7

>  <UO Units>  (538) 
UO_0000065

>  <Potential Duplicate>  (538) 
False

>  <Class>  (538) 
0

$$$$

     RDKit          2D

 25 27  0  0  0  0  0  0  0  0999 V2000
    3.7500   -1.2990    0.0000 C   0  0  0  0  0  0  0  0  0  0  0  0
    3.0000    0.0000    0.0000 O   0  0  0  0  0  0  0  0  0  0  0  0
    1.5000    0.0000    0.0000 C   0  0  0  0  0  0  0  0  0  0  0  0
    0.7500   -1.2990    0.0000 C   0  0  0  0  0  0  0  0  0  0  0  0
   -0.7500   -1.2990    0.0000 C   0  0  0  0  0  0  0  0  0  0  0  0
   -1.5000    0.0000    0.0000 C   0  0  0  0  0  0  0  0  0  0  0  0
   -0.7500    1.2990    0.0000 C   0  0  0  0  0  0  0  0  0  0  0  0
    0.7500    1.2990    0.0000 C   0  0  0  0  0  0  0  0  0  0  0  0
   -1.5000    2.5981    0.0000 C   0  0  0  0  0  0  0  0  0  0  0  0
   -0.7500    3.8971    0.0000 C   0  0  0  0  0  0  0  0  0  0  0  0
   -3.0000    2.5981    0.0000 N   0  0  0  0  0  0  0  0  0  0  0  0
   -3.7500    3.8971    0.0000 C   0  0  0  0  0  0  0  0  0  0  0  0
   -3.0000    5.1962    0.0000 O   0  0  0  0  0  0  0  0  0  0  0  0
   -5.2500    3.8971    0.0000 C   0  0  0  0  0  0  0  0  0  0  0  0
   -6.0000    5.1962    0.0000 C   0  0  0  0  0  0  0  0  0  0  0  0
   -7.5000    5.1962    0.0000 N   0  0  0  0  0  0  0  0  0  0  0  0
   -8.2500    3.8971    0.0000 C   0  0  0  0  0  0  0  0  0  0  0  0
   -7.5000    2.5981    0.0000 N   0  0  0  0  0  0  0  0  0  0  0  0
   -6.0000    2.5981    0.0000 C   0  0  0  0  0  0  0  0  0  0  0  0
   -9.7500    3.8971    0.0000 C   0  0  0  0  0  0  0  0  0  0  0  0
  -10.5000    5.1962    0.0000 C   0  0  0  0  0  0  0  0  0  0  0  0
  -12.0000    5.1962    0.0000 C   0  0  0  0  0  0  0  0  0  0  0  0
  -12.7500    3.8971    0.0000 N   0  0  0  0  0  0  0  0  0  0  0  0
  -12.0000    2.5981    0.0000 C   0  0  0  0  0  0  0  0  0  0  0  0
  -10.5000    2.5981    0.0000 C   0  0  0  0  0  0  0  0  0  0  0  0
  1  2  1  0
  2  3  1  0
  3  4  2  0
  4  5  1  0
  5  6  2  0
  6  7  1  0
  7  8  2  0
  7  9  1  0
  9 10  1  0
  9 11  1  0
 11 12  1  0
 12 13  2  0
 12 14  1  0
 14 15  2  0
 15 16  1  0
 16 17  2  0
 17 18  1  0
 18 19  2  0
 17 20  1  0
 20 21  2  0
 21 22  1  0
 22 23  2  0
 23 24  1  0
 24 25  2  0
  8  3  1  0
 19 14  1  0
 25 20  1  0
M  END
>  <Molecule>  (539) 
CHEMBL2003514

>  <Standard Type>  (539) 
Ki

>  <Standard Relation>  (539) 
>

>  <Standard Value>  (539) 
5011.87

>  <Standard Units>  (539) 
nM

>  <pChEMBL Value>  (539) 
nan

>  <Comment>  (539) 
inactive

>  <Compound Key>  (539) 
SID103904909

>  <Assay>  (539) 
CHEMBL1963742

>  <Assay Description>  (539) 
PUBCHEM_BIOASSAY: Navigating the Kinome. (Class of assay: other) Panel member name: JAK3

>  <BAO Format>  (539) 
assay format

>  <Target>  (539) 
CHEMBL2148

>  <Target Pref. Name>  (539) 
Tyrosine-protein kinase JAK3

>  <Target Organism>  (539) 
Homo sapiens

>  <Target Type>  (539) 
SINGLE PROTEIN

>  <Document>  (539) 
CHEMBL1201862

>  <Source>  (539) 
PubChem BioAssays

>  <Max Phase>  (539) 
0

>  <#Ro5 Violations>  (539) 
0

>  <Molecular Weight>  (539) 
334.38

>  <Ligand Efficiency BEI>  (539) 
nan

>  <Ligand Efficiency LE>  (539) 
nan

>  <Ligand Efficiency LLE>  (539) 
nan

>  <Ligand Efficiency SEI>  (539) 
nan

>  <ALogP>  (539) 
3.04

>  <Assay Organism>  (539) 
nan

>  <Assay Tissue ChEMBL ID>  (539) 
nan

>  <Assay Tissue Name>  (539) 
nan

>  <Assay Cell Type>  (539) 
nan

>  <Assay Subcellular Fraction>  (539) 
nan

>  <Organism Tax ID>  (539) 
9606

>  <BAO Format ID>  (539) 
BAO_0000019

>  <Published Type>  (539) 
nan

>  <Published Relation>  (539) 
nan

>  <Published Value>  (539) 
nan

>  <Published Units>  (539) 
nan

>  <Canonical Smiles>  (539) 
COc1cccc(c1)C(C)NC(=O)c2cnc(nc2)c3ccncc3

>  <Data Validity Comment>  (539) 
nan

>  <Document Journal>  (539) 
nan

>  <Document Year>  (539) 
nan

>  <SRC ID>  (539) 
7

>  <UO Units>  (539) 
UO_0000065

>  <Potential Duplicate>  (539) 
False

>  <Class>  (539) 
0

$$$$

     RDKit          2D

 28 31  0  0  0  0  0  0  0  0999 V2000
   -3.0000   -2.5981    0.0000 C   0  0  0  0  0  0  0  0  0  0  0  0
   -1.5000   -2.5981    0.0000 N   0  0  0  0  0  0  0  0  0  0  0  0
   -0.7500   -3.8971    0.0000 C   0  0  0  0  0  0  0  0  0  0  0  0
   -1.5000   -5.1962    0.0000 O   0  0  0  0  0  0  0  0  0  0  0  0
    0.7500   -3.8971    0.0000 C   0  0  0  0  0  0  0  0  0  0  0  0
    1.5000   -2.5981    0.0000 C   0  0  0  0  0  0  0  0  0  0  0  0
    0.7500   -1.2990    0.0000 C   0  0  0  0  0  0  0  0  0  0  0  0
    1.5000    0.0000    0.0000 C   0  0  0  0  0  0  0  0  0  0  0  0
    0.7500    1.2990    0.0000 N   0  0  0  0  0  0  0  0  0  0  0  0
   -0.7500    1.2990    0.0000 C   0  0  0  0  0  0  0  0  0  0  0  0
   -1.5000    2.5981    0.0000 N   0  0  0  0  0  0  0  0  0  0  0  0
   -0.7500    3.8971    0.0000 C   0  0  0  0  0  0  0  0  0  0  0  0
    0.7500    3.8971    0.0000 C   0  0  0  0  0  0  0  0  0  0  0  0
    1.5000    5.1962    0.0000 C   0  0  0  0  0  0  0  0  0  0  0  0
    0.7500    6.4952    0.0000 O   0  0  0  0  0  0  0  0  0  0  0  0
   -0.7500    6.4952    0.0000 C   0  0  0  0  0  0  0  0  0  0  0  0
   -1.5000    5.1962    0.0000 C   0  0  0  0  0  0  0  0  0  0  0  0
   -1.5000    0.0000    0.0000 N   0  0  0  0  0  0  0  0  0  0  0  0
   -0.7500   -1.2990    0.0000 C   0  0  0  0  0  0  0  0  0  0  0  0
    1.5000   -5.1962    0.0000 O   0  0  0  0  0  0  0  0  0  0  0  0
    0.7500   -6.4952    0.0000 C   0  0  0  0  0  0  0  0  0  0  0  0
   -0.7500   -6.4952    0.0000 C   0  0  0  0  0  0  0  0  0  0  0  0
   -1.5000   -7.7942    0.0000 C   0  0  0  0  0  0  0  0  0  0  0  0
   -0.7500   -9.0933    0.0000 C   0  0  0  0  0  0  0  0  0  0  0  0
   -1.5000  -10.3923    0.0000 F   0  0  0  0  0  0  0  0  0  0  0  0
    0.7500   -9.0933    0.0000 C   0  0  0  0  0  0  0  0  0  0  0  0
    1.5000   -7.7942    0.0000 C   0  0  0  0  0  0  0  0  0  0  0  0
    3.0000   -7.7942    0.0000 F   0  0  0  0  0  0  0  0  0  0  0  0
  1  2  1  0
  2  3  1  0
  3  4  2  0
  3  5  1  0
  5  6  2  0
  6  7  1  0
  7  8  2  0
  8  9  1  0
  9 10  2  0
 10 11  1  0
 11 12  1  0
 12 13  1  0
 13 14  1  0
 14 15  1  0
 15 16  1  0
 16 17  1  0
 10 18  1  0
 18 19  2  0
  5 20  1  0
 20 21  1  0
 21 22  2  0
 22 23  1  0
 23 24  2  0
 24 25  1  0
 24 26  1  0
 26 27  2  0
 27 28  1  0
 19  2  1  0
 19  7  1  0
 17 12  1  0
 27 21  1  0
M  END
>  <Molecule>  (540) 
CHEMBL1230122

>  <Standard Type>  (540) 
Ki

>  <Standard Relation>  (540) 
>

>  <Standard Value>  (540) 
1584.89

>  <Standard Units>  (540) 
nM

>  <pChEMBL Value>  (540) 
nan

>  <Comment>  (540) 
inactive

>  <Compound Key>  (540) 
SID103905625

>  <Assay>  (540) 
CHEMBL1963742

>  <Assay Description>  (540) 
PUBCHEM_BIOASSAY: Navigating the Kinome. (Class of assay: other) Panel member name: JAK3

>  <BAO Format>  (540) 
assay format

>  <Target>  (540) 
CHEMBL2148

>  <Target Pref. Name>  (540) 
Tyrosine-protein kinase JAK3

>  <Target Organism>  (540) 
Homo sapiens

>  <Target Type>  (540) 
SINGLE PROTEIN

>  <Document>  (540) 
CHEMBL1201862

>  <Source>  (540) 
PubChem BioAssays

>  <Max Phase>  (540) 
1

>  <#Ro5 Violations>  (540) 
0

>  <Molecular Weight>  (540) 
388.37

>  <Ligand Efficiency BEI>  (540) 
nan

>  <Ligand Efficiency LE>  (540) 
nan

>  <Ligand Efficiency LLE>  (540) 
nan

>  <Ligand Efficiency SEI>  (540) 
nan

>  <ALogP>  (540) 
2.99

>  <Assay Organism>  (540) 
nan

>  <Assay Tissue ChEMBL ID>  (540) 
nan

>  <Assay Tissue Name>  (540) 
nan

>  <Assay Cell Type>  (540) 
nan

>  <Assay Subcellular Fraction>  (540) 
nan

>  <Organism Tax ID>  (540) 
9606

>  <BAO Format ID>  (540) 
BAO_0000019

>  <Published Type>  (540) 
nan

>  <Published Relation>  (540) 
nan

>  <Published Value>  (540) 
nan

>  <Published Units>  (540) 
nan

>  <Canonical Smiles>  (540) 
CN1C(=O)C(=Cc2cnc(NC3CCOCC3)nc12)Oc4ccc(F)cc4F

>  <Data Validity Comment>  (540) 
nan

>  <Document Journal>  (540) 
nan

>  <Document Year>  (540) 
nan

>  <SRC ID>  (540) 
7

>  <UO Units>  (540) 
UO_0000065

>  <Potential Duplicate>  (540) 
False

>  <Class>  (540) 
0

$$$$

     RDKit          2D

 45 50  0  0  0  0  0  0  0  0999 V2000
   -0.7500   -6.4952    0.0000 C   0  0  0  0  0  0  0  0  0  0  0  0
    0.7500   -6.4952    0.0000 O   0  0  0  0  0  0  0  0  0  0  0  0
    1.5000   -5.1962    0.0000 C   0  0  0  0  0  0  0  0  0  0  0  0
    0.7500   -3.8971    0.0000 C   0  0  0  0  0  0  0  0  0  0  0  0
    1.5000   -2.5981    0.0000 C   0  0  0  0  0  0  0  0  0  0  0  0
    3.0000   -2.5981    0.0000 C   0  0  0  0  0  0  0  0  0  0  0  0
    3.7500   -3.8971    0.0000 C   0  0  0  0  0  0  0  0  0  0  0  0
    3.0000   -5.1962    0.0000 C   0  0  0  0  0  0  0  0  0  0  0  0
    3.7500   -6.4952    0.0000 O   0  0  0  0  0  0  0  0  0  0  0  0
    5.2500   -6.4952    0.0000 C   0  0  0  0  0  0  0  0  0  0  0  0
    6.0000   -7.7942    0.0000 C   0  0  0  0  0  0  0  0  0  0  0  0
    5.2500   -9.0933    0.0000 O   0  0  0  0  0  0  0  0  0  0  0  0
    7.5000   -7.7942    0.0000 C   0  0  0  0  0  0  0  0  0  0  0  0
    8.2500   -9.0933    0.0000 O   0  0  0  0  0  0  0  0  0  0  0  0
    0.7500   -1.2990    0.0000 C   0  0  0  0  0  0  0  0  0  0  0  0
    1.5000    0.0000    0.0000 C   0  0  0  0  0  0  0  0  0  0  0  0
    0.7500    1.2990    0.0000 C   0  0  0  0  0  0  0  0  0  0  0  0
   -0.7500    1.2990    0.0000 C   0  0  0  0  0  0  0  0  0  0  0  0
   -1.2980    2.6953    0.0000 C   0  0  0  0  0  0  0  0  0  0  0  0
   -0.2778    3.7949    0.0000 O   0  0  0  0  0  0  0  0  0  0  0  0
   -2.7314    3.1375    0.0000 N   0  0  0  0  0  0  0  0  0  0  0  0
   -3.9707    2.2925    0.0000 C   0  0  0  0  0  0  0  0  0  0  0  0
   -5.2101    3.1375    0.0000 C   0  0  0  0  0  0  0  0  0  0  0  0
   -6.5615    2.4867    0.0000 C   0  0  0  0  0  0  0  0  0  0  0  0
   -7.8009    3.3316    0.0000 C   0  0  0  0  0  0  0  0  0  0  0  0
   -7.6888    4.8274    0.0000 C   0  0  0  0  0  0  0  0  0  0  0  0
   -8.9282    5.6724    0.0000 O   0  0  0  0  0  0  0  0  0  0  0  0
   -8.8161    7.1682    0.0000 C   0  0  0  0  0  0  0  0  0  0  0  0
   -7.4646    7.8191    0.0000 C   0  0  0  0  0  0  0  0  0  0  0  0
   -7.3525    9.3149    0.0000 C   0  0  0  0  0  0  0  0  0  0  0  0
   -8.5919   10.1598    0.0000 C   0  0  0  0  0  0  0  0  0  0  0  0
   -9.9433    9.5090    0.0000 C   0  0  0  0  0  0  0  0  0  0  0  0
  -10.0554    8.0132    0.0000 C   0  0  0  0  0  0  0  0  0  0  0  0
   -8.4798   11.6556    0.0000 N   0  0  0  0  0  0  0  0  0  0  0  0
   -7.1283   12.3065    0.0000 C   0  0  0  0  0  0  0  0  0  0  0  0
   -7.0162   13.8023    0.0000 C   0  0  0  0  0  0  0  0  0  0  0  0
   -8.2556   14.6473    0.0000 O   0  0  0  0  0  0  0  0  0  0  0  0
   -9.6070   13.9964    0.0000 C   0  0  0  0  0  0  0  0  0  0  0  0
   -9.7191   12.5006    0.0000 C   0  0  0  0  0  0  0  0  0  0  0  0
   -6.6736    0.9909    0.0000 C   0  0  0  0  0  0  0  0  0  0  0  0
   -5.4343    0.1459    0.0000 C   0  0  0  0  0  0  0  0  0  0  0  0
   -4.0828    0.7967    0.0000 C   0  0  0  0  0  0  0  0  0  0  0  0
   -2.9832   -0.2236    0.0000 N   0  0  0  0  0  0  0  0  0  0  0  0
   -1.5000    0.0000    0.0000 C   0  0  0  0  0  0  0  0  0  0  0  0
   -0.7500   -1.2990    0.0000 C   0  0  0  0  0  0  0  0  0  0  0  0
  1  2  1  0
  2  3  1  0
  3  4  2  0
  4  5  1  0
  5  6  2  0
  6  7  1  0
  7  8  2  0
  8  9  1  0
  9 10  1  0
 10 11  1  0
 11 12  1  0
 11 13  1  0
 13 14  1  0
  5 15  1  0
 15 16  2  0
 16 17  1  0
 17 18  2  0
 18 19  1  0
 19 20  2  0
 19 21  1  0
 21 22  1  0
 22 23  2  0
 23 24  1  0
 24 25  1  0
 25 26  1  0
 26 27  1  0
 27 28  1  0
 28 29  2  0
 29 30  1  0
 30 31  2  0
 31 32  1  0
 32 33  2  0
 31 34  1  0
 34 35  1  0
 35 36  1  0
 36 37  1  0
 37 38  1  0
 38 39  1  0
 24 40  2  0
 40 41  1  0
 41 42  2  0
 42 43  1  0
 43 44  1  0
 44 45  2  0
  8  3  1  0
 45 15  1  0
 44 18  1  0
 42 22  1  0
 33 28  1  0
 39 34  1  0
M  END
>  <Molecule>  (541) 
CHEMBL1981045

>  <Standard Type>  (541) 
Ki

>  <Standard Relation>  (541) 
>

>  <Standard Value>  (541) 
1584.89

>  <Standard Units>  (541) 
nM

>  <pChEMBL Value>  (541) 
nan

>  <Comment>  (541) 
inactive

>  <Compound Key>  (541) 
SID103904725

>  <Assay>  (541) 
CHEMBL1963742

>  <Assay Description>  (541) 
PUBCHEM_BIOASSAY: Navigating the Kinome. (Class of assay: other) Panel member name: JAK3

>  <BAO Format>  (541) 
assay format

>  <Target>  (541) 
CHEMBL2148

>  <Target Pref. Name>  (541) 
Tyrosine-protein kinase JAK3

>  <Target Organism>  (541) 
Homo sapiens

>  <Target Type>  (541) 
SINGLE PROTEIN

>  <Document>  (541) 
CHEMBL1201862

>  <Source>  (541) 
PubChem BioAssays

>  <Max Phase>  (541) 
0

>  <#Ro5 Violations>  (541) 
1

>  <Molecular Weight>  (541) 
611.69

>  <Ligand Efficiency BEI>  (541) 
nan

>  <Ligand Efficiency LE>  (541) 
nan

>  <Ligand Efficiency LLE>  (541) 
nan

>  <Ligand Efficiency SEI>  (541) 
nan

>  <ALogP>  (541) 
4.86

>  <Assay Organism>  (541) 
nan

>  <Assay Tissue ChEMBL ID>  (541) 
nan

>  <Assay Tissue Name>  (541) 
nan

>  <Assay Cell Type>  (541) 
nan

>  <Assay Subcellular Fraction>  (541) 
nan

>  <Organism Tax ID>  (541) 
9606

>  <BAO Format ID>  (541) 
BAO_0000019

>  <Published Type>  (541) 
nan

>  <Published Relation>  (541) 
nan

>  <Published Value>  (541) 
nan

>  <Published Units>  (541) 
nan

>  <Canonical Smiles>  (541) 
COc1cc(ccc1OCC(O)CO)c2ccc3C(=O)Nc4cc(CCOc5ccc(cc5)N6CCOCC6)ccc4Nc3c2

>  <Data Validity Comment>  (541) 
nan

>  <Document Journal>  (541) 
nan

>  <Document Year>  (541) 
nan

>  <SRC ID>  (541) 
7

>  <UO Units>  (541) 
UO_0000065

>  <Potential Duplicate>  (541) 
False

>  <Class>  (541) 
0

$$$$

     RDKit          2D

 26 30  0  0  0  0  0  0  0  0999 V2000
   -8.3515    0.9439    0.0000 C   0  0  0  0  0  0  0  0  0  0  0  0
   -6.8843    1.2558    0.0000 C   0  0  0  0  0  0  0  0  0  0  0  0
   -5.8806    0.1411    0.0000 C   0  0  0  0  0  0  0  0  0  0  0  0
   -6.1924   -1.3261    0.0000 C   0  0  0  0  0  0  0  0  0  0  0  0
   -4.8934   -2.0761    0.0000 C   0  0  0  0  0  0  0  0  0  0  0  0
   -3.7787   -1.0725    0.0000 C   0  0  0  0  0  0  0  0  0  0  0  0
   -4.3888    0.2979    0.0000 C   0  0  0  0  0  0  0  0  0  0  0  0
   -3.6388    1.5969    0.0000 C   0  0  0  0  0  0  0  0  0  0  0  0
   -4.2489    2.9672    0.0000 N   0  0  0  0  0  0  0  0  0  0  0  0
   -3.1342    3.9709    0.0000 C   0  0  0  0  0  0  0  0  0  0  0  0
   -1.8351    3.2209    0.0000 C   0  0  0  0  0  0  0  0  0  0  0  0
   -0.4086    3.6844    0.0000 C   0  0  0  0  0  0  0  0  0  0  0  0
    0.7062    2.6807    0.0000 N   0  0  0  0  0  0  0  0  0  0  0  0
    0.3943    1.2135    0.0000 C   0  0  0  0  0  0  0  0  0  0  0  0
    1.2760    0.0000    0.0000 N   0  0  0  0  0  0  0  0  0  0  0  0
    0.3943   -1.2135    0.0000 C   0  0  0  0  0  0  0  0  0  0  0  0
   -1.0323   -0.7500    0.0000 C   0  0  0  0  0  0  0  0  0  0  0  0
   -1.0323    0.7500    0.0000 C   0  0  0  0  0  0  0  0  0  0  0  0
   -2.1470    1.7537    0.0000 N   0  0  0  0  0  0  0  0  0  0  0  0
   -4.7366   -3.5679    0.0000 N   0  0  0  0  0  0  0  0  0  0  0  0
   -5.9501   -4.4496    0.0000 S   0  0  0  0  0  0  0  0  0  0  0  0
   -6.8318   -3.2361    0.0000 O   0  0  0  0  0  0  0  0  0  0  0  0
   -5.0685   -5.6631    0.0000 O   0  0  0  0  0  0  0  0  0  0  0  0
   -7.1637   -5.3313    0.0000 C   0  0  0  0  0  0  0  0  0  0  0  0
   -7.7738   -6.7016    0.0000 C   0  0  0  0  0  0  0  0  0  0  0  0
   -8.6554   -5.4881    0.0000 C   0  0  0  0  0  0  0  0  0  0  0  0
  1  2  1  0
  2  3  1  0
  3  4  1  0
  4  5  1  0
  5  6  1  0
  6  7  1  0
  7  8  1  0
  8  9  2  0
  9 10  1  0
 10 11  2  0
 11 12  1  0
 12 13  2  0
 13 14  1  0
 14 15  1  0
 15 16  1  0
 16 17  2  0
 17 18  1  0
 18 19  1  0
  5 20  1  0
 20 21  1  0
 21 22  2  0
 21 23  2  0
 21 24  1  0
 24 25  1  0
 25 26  1  0
  7  3  1  0
 19  8  1  0
 19 11  1  0
 18 14  2  0
 26 24  1  0
M  END
>  <Molecule>  (542) 
CHEMBL1992073

>  <Standard Type>  (542) 
Ki

>  <Standard Relation>  (542) 
=

>  <Standard Value>  (542) 
3.981

>  <Standard Units>  (542) 
nM

>  <pChEMBL Value>  (542) 
8.4

>  <Comment>  (542) 
active

>  <Compound Key>  (542) 
SID103904917

>  <Assay>  (542) 
CHEMBL1963742

>  <Assay Description>  (542) 
PUBCHEM_BIOASSAY: Navigating the Kinome. (Class of assay: other) Panel member name: JAK3

>  <BAO Format>  (542) 
assay format

>  <Target>  (542) 
CHEMBL2148

>  <Target Pref. Name>  (542) 
Tyrosine-protein kinase JAK3

>  <Target Organism>  (542) 
Homo sapiens

>  <Target Type>  (542) 
SINGLE PROTEIN

>  <Document>  (542) 
CHEMBL1201862

>  <Source>  (542) 
PubChem BioAssays

>  <Max Phase>  (542) 
0

>  <#Ro5 Violations>  (542) 
0

>  <Molecular Weight>  (542) 
373.48

>  <Ligand Efficiency BEI>  (542) 
nan

>  <Ligand Efficiency LE>  (542) 
nan

>  <Ligand Efficiency LLE>  (542) 
nan

>  <Ligand Efficiency SEI>  (542) 
nan

>  <ALogP>  (542) 
2.56

>  <Assay Organism>  (542) 
nan

>  <Assay Tissue ChEMBL ID>  (542) 
nan

>  <Assay Tissue Name>  (542) 
nan

>  <Assay Cell Type>  (542) 
nan

>  <Assay Subcellular Fraction>  (542) 
nan

>  <Organism Tax ID>  (542) 
9606

>  <BAO Format ID>  (542) 
BAO_0000019

>  <Published Type>  (542) 
nan

>  <Published Relation>  (542) 
nan

>  <Published Value>  (542) 
nan

>  <Published Units>  (542) 
nan

>  <Canonical Smiles>  (542) 
CCC1CC(CC1c2ncc3cnc4[nH]ccc4n23)NS(=O)(=O)C5CC5

>  <Data Validity Comment>  (542) 
nan

>  <Document Journal>  (542) 
nan

>  <Document Year>  (542) 
nan

>  <SRC ID>  (542) 
7

>  <UO Units>  (542) 
UO_0000065

>  <Potential Duplicate>  (542) 
False

>  <Class>  (542) 
1

$$$$

     RDKit          2D

 30 34  0  0  0  0  0  0  0  0999 V2000
   -0.0000   -5.1073    0.0000 C   0  0  0  0  0  0  0  0  0  0  0  0
   -0.0000   -3.6073    0.0000 C   0  0  0  0  0  0  0  0  0  0  0  0
    1.2135   -2.7256    0.0000 C   0  0  0  0  0  0  0  0  0  0  0  0
    0.7500   -1.2990    0.0000 C   0  0  0  0  0  0  0  0  0  0  0  0
    1.5000    0.0000    0.0000 C   0  0  0  0  0  0  0  0  0  0  0  0
    0.7500    1.2990    0.0000 C   0  0  0  0  0  0  0  0  0  0  0  0
   -0.7500    1.2990    0.0000 C   0  0  0  0  0  0  0  0  0  0  0  0
   -1.5000    0.0000    0.0000 C   0  0  0  0  0  0  0  0  0  0  0  0
   -0.7500   -1.2990    0.0000 C   0  0  0  0  0  0  0  0  0  0  0  0
   -1.2135   -2.7256    0.0000 N   0  0  0  0  0  0  0  0  0  0  0  0
    1.5000    2.5981    0.0000 C   0  0  0  0  0  0  0  0  0  0  0  0
    2.9918    2.7549    0.0000 C   0  0  0  0  0  0  0  0  0  0  0  0
    3.3037    4.2221    0.0000 S   0  0  0  0  0  0  0  0  0  0  0  0
    2.0046    4.9721    0.0000 C   0  0  0  0  0  0  0  0  0  0  0  0
    1.6927    6.4393    0.0000 C   0  0  0  0  0  0  0  0  0  0  0  0
    0.2662    6.9028    0.0000 C   0  0  0  0  0  0  0  0  0  0  0  0
   -0.8486    5.8991    0.0000 N   0  0  0  0  0  0  0  0  0  0  0  0
   -0.5367    4.4319    0.0000 C   0  0  0  0  0  0  0  0  0  0  0  0
   -1.6514    3.4282    0.0000 N   0  0  0  0  0  0  0  0  0  0  0  0
    0.8899    3.9684    0.0000 C   0  0  0  0  0  0  0  0  0  0  0  0
    2.8075    7.4430    0.0000 C   0  0  0  0  0  0  0  0  0  0  0  0
    4.2340    6.9795    0.0000 C   0  0  0  0  0  0  0  0  0  0  0  0
    5.3488    7.9832    0.0000 C   0  0  0  0  0  0  0  0  0  0  0  0
    5.0369    9.4504    0.0000 C   0  0  0  0  0  0  0  0  0  0  0  0
    3.6103    9.9139    0.0000 C   0  0  0  0  0  0  0  0  0  0  0  0
    2.4956    8.9102    0.0000 C   0  0  0  0  0  0  0  0  0  0  0  0
    3.2984   11.3811    0.0000 S   0  0  0  0  0  0  0  0  0  0  0  0
    1.8312   11.0693    0.0000 O   0  0  0  0  0  0  0  0  0  0  0  0
    4.7657   11.6930    0.0000 O   0  0  0  0  0  0  0  0  0  0  0  0
    2.9866   12.8484    0.0000 C   0  0  0  0  0  0  0  0  0  0  0  0
  1  2  1  0
  2  3  2  0
  3  4  1  0
  4  5  2  0
  5  6  1  0
  6  7  2  0
  7  8  1  0
  8  9  2  0
  9 10  1  0
  6 11  1  0
 11 12  2  0
 12 13  1  0
 13 14  1  0
 14 15  2  0
 15 16  1  0
 16 17  2  0
 17 18  1  0
 18 19  1  0
 18 20  2  0
 15 21  1  0
 21 22  2  0
 22 23  1  0
 23 24  2  0
 24 25  1  0
 25 26  2  0
 25 27  1  0
 27 28  2  0
 27 29  2  0
 27 30  1  0
 10  2  1  0
  9  4  1  0
 20 11  1  0
 20 14  1  0
 26 21  1  0
M  END
>  <Molecule>  (543) 
CHEMBL1997822

>  <Standard Type>  (543) 
Ki

>  <Standard Relation>  (543) 
>

>  <Standard Value>  (543) 
1584.89

>  <Standard Units>  (543) 
nM

>  <pChEMBL Value>  (543) 
nan

>  <Comment>  (543) 
inactive

>  <Compound Key>  (543) 
SID103904321

>  <Assay>  (543) 
CHEMBL1963742

>  <Assay Description>  (543) 
PUBCHEM_BIOASSAY: Navigating the Kinome. (Class of assay: other) Panel member name: JAK3

>  <BAO Format>  (543) 
assay format

>  <Target>  (543) 
CHEMBL2148

>  <Target Pref. Name>  (543) 
Tyrosine-protein kinase JAK3

>  <Target Organism>  (543) 
Homo sapiens

>  <Target Type>  (543) 
SINGLE PROTEIN

>  <Document>  (543) 
CHEMBL1201862

>  <Source>  (543) 
PubChem BioAssays

>  <Max Phase>  (543) 
0

>  <#Ro5 Violations>  (543) 
1

>  <Molecular Weight>  (543) 
433.56

>  <Ligand Efficiency BEI>  (543) 
nan

>  <Ligand Efficiency LE>  (543) 
nan

>  <Ligand Efficiency LLE>  (543) 
nan

>  <Ligand Efficiency SEI>  (543) 
nan

>  <ALogP>  (543) 
5.41

>  <Assay Organism>  (543) 
nan

>  <Assay Tissue ChEMBL ID>  (543) 
nan

>  <Assay Tissue Name>  (543) 
nan

>  <Assay Cell Type>  (543) 
nan

>  <Assay Subcellular Fraction>  (543) 
nan

>  <Organism Tax ID>  (543) 
9606

>  <BAO Format ID>  (543) 
BAO_0000019

>  <Published Type>  (543) 
nan

>  <Published Relation>  (543) 
nan

>  <Published Value>  (543) 
nan

>  <Published Units>  (543) 
nan

>  <Canonical Smiles>  (543) 
Cc1cc2cc(ccc2[nH]1)c3csc4c(cnc(N)c34)c5cccc(c5)S(=O)(=O)C

>  <Data Validity Comment>  (543) 
nan

>  <Document Journal>  (543) 
nan

>  <Document Year>  (543) 
nan

>  <SRC ID>  (543) 
7

>  <UO Units>  (543) 
UO_0000065

>  <Potential Duplicate>  (543) 
False

>  <Class>  (543) 
0

$$$$

     RDKit          2D

 25 28  0  0  0  0  0  0  0  0999 V2000
    2.9048    7.4654    0.0000 C   0  0  0  0  0  0  0  0  0  0  0  0
    1.4183    7.6667    0.0000 O   0  0  0  0  0  0  0  0  0  0  0  0
    0.5008    6.4801    0.0000 C   0  0  0  0  0  0  0  0  0  0  0  0
    1.0696    5.0922    0.0000 C   0  0  0  0  0  0  0  0  0  0  0  0
    0.1520    3.9056    0.0000 C   0  0  0  0  0  0  0  0  0  0  0  0
    0.9214    2.6179    0.0000 N   0  0  0  0  0  0  0  0  0  0  0  0
    0.3943    1.2135    0.0000 C   0  0  0  0  0  0  0  0  0  0  0  0
    1.2760    0.0000    0.0000 N   0  0  0  0  0  0  0  0  0  0  0  0
    0.3943   -1.2135    0.0000 N   0  0  0  0  0  0  0  0  0  0  0  0
   -1.0323   -0.7500    0.0000 C   0  0  0  0  0  0  0  0  0  0  0  0
   -2.2458   -1.6317    0.0000 C   0  0  0  0  0  0  0  0  0  0  0  0
   -1.0323    0.7500    0.0000 C   0  0  0  0  0  0  0  0  0  0  0  0
   -2.2841    1.5763    0.0000 N   0  0  0  0  0  0  0  0  0  0  0  0
   -2.4186    3.0703    0.0000 C   0  0  0  0  0  0  0  0  0  0  0  0
   -3.8230    3.5974    0.0000 C   0  0  0  0  0  0  0  0  0  0  0  0
   -4.0687    5.0771    0.0000 C   0  0  0  0  0  0  0  0  0  0  0  0
   -5.4730    5.6042    0.0000 C   0  0  0  0  0  0  0  0  0  0  0  0
   -6.6317    4.6515    0.0000 C   0  0  0  0  0  0  0  0  0  0  0  0
   -6.3859    3.1718    0.0000 C   0  0  0  0  0  0  0  0  0  0  0  0
   -4.9816    2.6447    0.0000 C   0  0  0  0  0  0  0  0  0  0  0  0
   -4.7359    1.1650    0.0000 Cl  0  0  0  0  0  0  0  0  0  0  0  0
   -1.3344    4.1069    0.0000 C   0  0  0  0  0  0  0  0  0  0  0  0
   -1.9033    5.4949    0.0000 C   0  0  0  0  0  0  0  0  0  0  0  0
   -0.9857    6.6815    0.0000 C   0  0  0  0  0  0  0  0  0  0  0  0
   -1.5545    8.0694    0.0000 F   0  0  0  0  0  0  0  0  0  0  0  0
  1  2  1  0
  2  3  1  0
  3  4  2  0
  4  5  1  0
  5  6  1  0
  6  7  1  0
  7  8  2  0
  8  9  1  0
  9 10  1  0
 10 11  1  0
 10 12  2  0
 12 13  1  0
 13 14  2  0
 14 15  1  0
 15 16  2  0
 16 17  1  0
 17 18  2  0
 18 19  1  0
 19 20  2  0
 20 21  1  0
 14 22  1  0
 22 23  1  0
 23 24  2  0
 24 25  1  0
 24  3  1  0
 22  5  2  0
 12  7  1  0
 20 15  1  0
M  END
>  <Molecule>  (544) 
CHEMBL1980391

>  <Standard Type>  (544) 
Ki

>  <Standard Relation>  (544) 
=

>  <Standard Value>  (544) 
79.43

>  <Standard Units>  (544) 
nM

>  <pChEMBL Value>  (544) 
7.1

>  <Comment>  (544) 
active

>  <Compound Key>  (544) 
SID103905607

>  <Assay>  (544) 
CHEMBL1963742

>  <Assay Description>  (544) 
PUBCHEM_BIOASSAY: Navigating the Kinome. (Class of assay: other) Panel member name: JAK3

>  <BAO Format>  (544) 
assay format

>  <Target>  (544) 
CHEMBL2148

>  <Target Pref. Name>  (544) 
Tyrosine-protein kinase JAK3

>  <Target Organism>  (544) 
Homo sapiens

>  <Target Type>  (544) 
SINGLE PROTEIN

>  <Document>  (544) 
CHEMBL1201862

>  <Source>  (544) 
PubChem BioAssays

>  <Max Phase>  (544) 
1

>  <#Ro5 Violations>  (544) 
0

>  <Molecular Weight>  (544) 
356.79

>  <Ligand Efficiency BEI>  (544) 
nan

>  <Ligand Efficiency LE>  (544) 
nan

>  <Ligand Efficiency LLE>  (544) 
nan

>  <Ligand Efficiency SEI>  (544) 
nan

>  <ALogP>  (544) 
4.75

>  <Assay Organism>  (544) 
nan

>  <Assay Tissue ChEMBL ID>  (544) 
nan

>  <Assay Tissue Name>  (544) 
nan

>  <Assay Cell Type>  (544) 
nan

>  <Assay Subcellular Fraction>  (544) 
nan

>  <Organism Tax ID>  (544) 
9606

>  <BAO Format ID>  (544) 
BAO_0000019

>  <Published Type>  (544) 
nan

>  <Published Relation>  (544) 
nan

>  <Published Value>  (544) 
nan

>  <Published Units>  (544) 
nan

>  <Canonical Smiles>  (544) 
COc1cc2Nc3n[nH]c(C)c3N=C(c4ccccc4Cl)c2cc1F

>  <Data Validity Comment>  (544) 
nan

>  <Document Journal>  (544) 
nan

>  <Document Year>  (544) 
nan

>  <SRC ID>  (544) 
7

>  <UO Units>  (544) 
UO_0000065

>  <Potential Duplicate>  (544) 
False

>  <Class>  (544) 
1

$$$$

     RDKit          2D

 34 37  0  0  0  0  0  0  0  0999 V2000
    6.0000   -2.5981    0.0000 C   0  0  0  0  0  0  0  0  0  0  0  0
    5.2500   -1.2990    0.0000 C   0  0  0  0  0  0  0  0  0  0  0  0
    6.0000    0.0000    0.0000 C   0  0  0  0  0  0  0  0  0  0  0  0
    3.7500   -1.2990    0.0000 C   0  0  0  0  0  0  0  0  0  0  0  0
    3.0000    0.0000    0.0000 O   0  0  0  0  0  0  0  0  0  0  0  0
    1.5000    0.0000    0.0000 C   0  0  0  0  0  0  0  0  0  0  0  0
    0.7500   -1.2990    0.0000 N   0  0  0  0  0  0  0  0  0  0  0  0
   -0.7500   -1.2990    0.0000 C   0  0  0  0  0  0  0  0  0  0  0  0
   -1.5000    0.0000    0.0000 C   0  0  0  0  0  0  0  0  0  0  0  0
   -0.7500    1.2990    0.0000 N   0  0  0  0  0  0  0  0  0  0  0  0
   -1.2135    2.7256    0.0000 C   0  0  0  0  0  0  0  0  0  0  0  0
   -2.6401    3.1891    0.0000 C   0  0  0  0  0  0  0  0  0  0  0  0
   -2.9520    4.6564    0.0000 C   0  0  0  0  0  0  0  0  0  0  0  0
   -4.3786    5.1199    0.0000 C   0  0  0  0  0  0  0  0  0  0  0  0
   -5.4933    4.1162    0.0000 N   0  0  0  0  0  0  0  0  0  0  0  0
   -5.1814    2.6490    0.0000 C   0  0  0  0  0  0  0  0  0  0  0  0
   -6.2961    1.6453    0.0000 N   0  0  0  0  0  0  0  0  0  0  0  0
   -7.7227    2.1088    0.0000 C   0  0  0  0  0  0  0  0  0  0  0  0
   -8.8374    1.1051    0.0000 C   0  0  0  0  0  0  0  0  0  0  0  0
   -7.8337   -0.0096    0.0000 C   0  0  0  0  0  0  0  0  0  0  0  0
   -9.8411    2.2198    0.0000 C   0  0  0  0  0  0  0  0  0  0  0  0
   -9.9521    0.1014    0.0000 C   0  0  0  0  0  0  0  0  0  0  0  0
   -9.6403   -1.3658    0.0000 O   0  0  0  0  0  0  0  0  0  0  0  0
   -3.7548    2.1855    0.0000 N   0  0  0  0  0  0  0  0  0  0  0  0
   -0.0000    3.6073    0.0000 C   0  0  0  0  0  0  0  0  0  0  0  0
    1.2135    2.7256    0.0000 N   0  0  0  0  0  0  0  0  0  0  0  0
    0.7500    1.2990    0.0000 C   0  0  0  0  0  0  0  0  0  0  0  0
   -0.0000    5.1073    0.0000 C   0  0  0  0  0  0  0  0  0  0  0  0
    1.2990    5.8573    0.0000 C   0  0  0  0  0  0  0  0  0  0  0  0
    1.2990    7.3573    0.0000 C   0  0  0  0  0  0  0  0  0  0  0  0
   -0.0000    8.1073    0.0000 C   0  0  0  0  0  0  0  0  0  0  0  0
   -0.0000    9.6073    0.0000 F   0  0  0  0  0  0  0  0  0  0  0  0
   -1.2990    7.3573    0.0000 C   0  0  0  0  0  0  0  0  0  0  0  0
   -1.2990    5.8573    0.0000 C   0  0  0  0  0  0  0  0  0  0  0  0
  1  2  1  0
  2  3  1  0
  2  4  1  0
  4  5  1  0
  5  6  1  0
  6  7  2  0
  7  8  1  0
  8  9  2  0
  9 10  1  0
 10 11  1  0
 11 12  1  0
 12 13  2  0
 13 14  1  0
 14 15  2  0
 15 16  1  0
 16 17  1  0
 17 18  1  0
 18 19  1  0
 19 20  1  0
 19 21  1  0
 19 22  1  0
 22 23  1  0
 16 24  2  0
 11 25  2  0
 25 26  1  0
 26 27  2  0
 25 28  1  0
 28 29  2  0
 29 30  1  0
 30 31  2  0
 31 32  1  0
 31 33  1  0
 33 34  2  0
 27  6  1  0
 27 10  1  0
 24 12  1  0
 34 28  1  0
M  END
>  <Molecule>  (545) 
CHEMBL1984842

>  <Standard Type>  (545) 
Ki

>  <Standard Relation>  (545) 
>

>  <Standard Value>  (545) 
3162.28

>  <Standard Units>  (545) 
nM

>  <pChEMBL Value>  (545) 
nan

>  <Comment>  (545) 
inactive

>  <Compound Key>  (545) 
SID103904777

>  <Assay>  (545) 
CHEMBL1963742

>  <Assay Description>  (545) 
PUBCHEM_BIOASSAY: Navigating the Kinome. (Class of assay: other) Panel member name: JAK3

>  <BAO Format>  (545) 
assay format

>  <Target>  (545) 
CHEMBL2148

>  <Target Pref. Name>  (545) 
Tyrosine-protein kinase JAK3

>  <Target Organism>  (545) 
Homo sapiens

>  <Target Type>  (545) 
SINGLE PROTEIN

>  <Document>  (545) 
CHEMBL1201862

>  <Source>  (545) 
PubChem BioAssays

>  <Max Phase>  (545) 
0

>  <#Ro5 Violations>  (545) 
0

>  <Molecular Weight>  (545) 
464.55

>  <Ligand Efficiency BEI>  (545) 
nan

>  <Ligand Efficiency LE>  (545) 
nan

>  <Ligand Efficiency LLE>  (545) 
nan

>  <Ligand Efficiency SEI>  (545) 
nan

>  <ALogP>  (545) 
4.46

>  <Assay Organism>  (545) 
nan

>  <Assay Tissue ChEMBL ID>  (545) 
nan

>  <Assay Tissue Name>  (545) 
nan

>  <Assay Cell Type>  (545) 
nan

>  <Assay Subcellular Fraction>  (545) 
nan

>  <Organism Tax ID>  (545) 
9606

>  <BAO Format ID>  (545) 
BAO_0000019

>  <Published Type>  (545) 
nan

>  <Published Relation>  (545) 
nan

>  <Published Value>  (545) 
nan

>  <Published Units>  (545) 
nan

>  <Canonical Smiles>  (545) 
CC(C)COc1nccn2c(c3ccnc(NCC(C)(C)CO)n3)c(nc12)c4ccc(F)cc4

>  <Data Validity Comment>  (545) 
nan

>  <Document Journal>  (545) 
nan

>  <Document Year>  (545) 
nan

>  <SRC ID>  (545) 
7

>  <UO Units>  (545) 
UO_0000065

>  <Potential Duplicate>  (545) 
False

>  <Class>  (545) 
0

$$$$

     RDKit          2D

 24 26  0  0  0  0  0  0  0  0999 V2000
    3.7500   -1.2990    0.0000 C   0  0  0  0  0  0  0  0  0  0  0  0
    3.0000    0.0000    0.0000 O   0  0  0  0  0  0  0  0  0  0  0  0
    1.5000    0.0000    0.0000 C   0  0  0  0  0  0  0  0  0  0  0  0
    0.7500   -1.2990    0.0000 C   0  0  0  0  0  0  0  0  0  0  0  0
   -0.7500   -1.2990    0.0000 C   0  0  0  0  0  0  0  0  0  0  0  0
   -1.5000    0.0000    0.0000 C   0  0  0  0  0  0  0  0  0  0  0  0
   -0.7500    1.2990    0.0000 C   0  0  0  0  0  0  0  0  0  0  0  0
   -1.5000    2.5981    0.0000 C   0  0  0  0  0  0  0  0  0  0  0  0
   -0.7500    3.8971    0.0000 N   0  0  0  0  0  0  0  0  0  0  0  0
   -1.5000    5.1962    0.0000 C   0  0  0  0  0  0  0  0  0  0  0  0
   -3.0000    5.1962    0.0000 O   0  0  0  0  0  0  0  0  0  0  0  0
   -0.7500    6.4952    0.0000 C   0  0  0  0  0  0  0  0  0  0  0  0
    0.7500    6.4952    0.0000 C   0  0  0  0  0  0  0  0  0  0  0  0
    1.5000    7.7942    0.0000 C   0  0  0  0  0  0  0  0  0  0  0  0
    0.7500    9.0933    0.0000 C   0  0  0  0  0  0  0  0  0  0  0  0
   -0.7500    9.0933    0.0000 C   0  0  0  0  0  0  0  0  0  0  0  0
   -1.5000    7.7942    0.0000 C   0  0  0  0  0  0  0  0  0  0  0  0
    1.5000   10.3923    0.0000 C   0  0  0  0  0  0  0  0  0  0  0  0
    3.0000   10.3923    0.0000 C   0  0  0  0  0  0  0  0  0  0  0  0
    3.7500   11.6913    0.0000 C   0  0  0  0  0  0  0  0  0  0  0  0
    3.0000   12.9904    0.0000 N   0  0  0  0  0  0  0  0  0  0  0  0
    1.5000   12.9904    0.0000 C   0  0  0  0  0  0  0  0  0  0  0  0
    0.7500   11.6913    0.0000 C   0  0  0  0  0  0  0  0  0  0  0  0
    0.7500    1.2990    0.0000 C   0  0  0  0  0  0  0  0  0  0  0  0
  1  2  1  0
  2  3  1  0
  3  4  2  0
  4  5  1  0
  5  6  2  0
  6  7  1  0
  7  8  1  0
  8  9  1  0
  9 10  1  0
 10 11  2  0
 10 12  1  0
 12 13  2  0
 13 14  1  0
 14 15  2  0
 15 16  1  0
 16 17  2  0
 15 18  1  0
 18 19  2  0
 19 20  1  0
 20 21  2  0
 21 22  1  0
 22 23  2  0
  7 24  2  0
 24  3  1  0
 17 12  1  0
 23 18  1  0
M  END
>  <Molecule>  (546) 
CHEMBL2006299

>  <Standard Type>  (546) 
Ki

>  <Standard Relation>  (546) 
>

>  <Standard Value>  (546) 
5011.87

>  <Standard Units>  (546) 
nM

>  <pChEMBL Value>  (546) 
nan

>  <Comment>  (546) 
inactive

>  <Compound Key>  (546) 
SID103904582

>  <Assay>  (546) 
CHEMBL1963742

>  <Assay Description>  (546) 
PUBCHEM_BIOASSAY: Navigating the Kinome. (Class of assay: other) Panel member name: JAK3

>  <BAO Format>  (546) 
assay format

>  <Target>  (546) 
CHEMBL2148

>  <Target Pref. Name>  (546) 
Tyrosine-protein kinase JAK3

>  <Target Organism>  (546) 
Homo sapiens

>  <Target Type>  (546) 
SINGLE PROTEIN

>  <Document>  (546) 
CHEMBL1201862

>  <Source>  (546) 
PubChem BioAssays

>  <Max Phase>  (546) 
0

>  <#Ro5 Violations>  (546) 
0

>  <Molecular Weight>  (546) 
318.38

>  <Ligand Efficiency BEI>  (546) 
nan

>  <Ligand Efficiency LE>  (546) 
nan

>  <Ligand Efficiency LLE>  (546) 
nan

>  <Ligand Efficiency SEI>  (546) 
nan

>  <ALogP>  (546) 
3.69

>  <Assay Organism>  (546) 
nan

>  <Assay Tissue ChEMBL ID>  (546) 
nan

>  <Assay Tissue Name>  (546) 
nan

>  <Assay Cell Type>  (546) 
nan

>  <Assay Subcellular Fraction>  (546) 
nan

>  <Organism Tax ID>  (546) 
9606

>  <BAO Format ID>  (546) 
BAO_0000019

>  <Published Type>  (546) 
nan

>  <Published Relation>  (546) 
nan

>  <Published Value>  (546) 
nan

>  <Published Units>  (546) 
nan

>  <Canonical Smiles>  (546) 
COc1cccc(CNC(=O)c2ccc(cc2)c3ccncc3)c1

>  <Data Validity Comment>  (546) 
nan

>  <Document Journal>  (546) 
nan

>  <Document Year>  (546) 
nan

>  <SRC ID>  (546) 
7

>  <UO Units>  (546) 
UO_0000065

>  <Potential Duplicate>  (546) 
False

>  <Class>  (546) 
0

$$$$

     RDKit          2D

 24 26  0  0  0  0  0  0  0  0999 V2000
    3.7500   -1.2990    0.0000 C   0  0  0  0  0  0  0  0  0  0  0  0
    3.0000    0.0000    0.0000 O   0  0  0  0  0  0  0  0  0  0  0  0
    1.5000    0.0000    0.0000 C   0  0  0  0  0  0  0  0  0  0  0  0
    0.7500   -1.2990    0.0000 C   0  0  0  0  0  0  0  0  0  0  0  0
   -0.7500   -1.2990    0.0000 C   0  0  0  0  0  0  0  0  0  0  0  0
   -1.5000    0.0000    0.0000 C   0  0  0  0  0  0  0  0  0  0  0  0
   -0.7500    1.2990    0.0000 C   0  0  0  0  0  0  0  0  0  0  0  0
    0.7500    1.2990    0.0000 C   0  0  0  0  0  0  0  0  0  0  0  0
   -1.5000    2.5981    0.0000 C   0  0  0  0  0  0  0  0  0  0  0  0
   -0.7500    3.8971    0.0000 C   0  0  0  0  0  0  0  0  0  0  0  0
   -3.0000    2.5981    0.0000 N   0  0  0  0  0  0  0  0  0  0  0  0
   -3.7500    3.8971    0.0000 C   0  0  0  0  0  0  0  0  0  0  0  0
   -3.0000    5.1962    0.0000 O   0  0  0  0  0  0  0  0  0  0  0  0
   -5.2500    3.8971    0.0000 C   0  0  0  0  0  0  0  0  0  0  0  0
   -6.1317    2.6836    0.0000 C   0  0  0  0  0  0  0  0  0  0  0  0
   -7.5583    3.1471    0.0000 N   0  0  0  0  0  0  0  0  0  0  0  0
   -7.5583    4.6471    0.0000 C   0  0  0  0  0  0  0  0  0  0  0  0
   -6.1317    5.1106    0.0000 S   0  0  0  0  0  0  0  0  0  0  0  0
   -8.7718    5.5288    0.0000 C   0  0  0  0  0  0  0  0  0  0  0  0
   -8.6150    7.0206    0.0000 C   0  0  0  0  0  0  0  0  0  0  0  0
   -9.8285    7.9023    0.0000 C   0  0  0  0  0  0  0  0  0  0  0  0
  -11.1988    7.2921    0.0000 N   0  0  0  0  0  0  0  0  0  0  0  0
  -11.3556    5.8004    0.0000 C   0  0  0  0  0  0  0  0  0  0  0  0
  -10.1421    4.9187    0.0000 C   0  0  0  0  0  0  0  0  0  0  0  0
  1  2  1  0
  2  3  1  0
  3  4  2  0
  4  5  1  0
  5  6  2  0
  6  7  1  0
  7  8  2  0
  7  9  1  0
  9 10  1  0
  9 11  1  0
 11 12  1  0
 12 13  2  0
 12 14  1  0
 14 15  2  0
 15 16  1  0
 16 17  2  0
 17 18  1  0
 17 19  1  0
 19 20  2  0
 20 21  1  0
 21 22  2  0
 22 23  1  0
 23 24  2  0
  8  3  1  0
 18 14  1  0
 24 19  1  0
M  END
>  <Molecule>  (547) 
CHEMBL1984633

>  <Standard Type>  (547) 
Ki

>  <Standard Relation>  (547) 
>

>  <Standard Value>  (547) 
1584.89

>  <Standard Units>  (547) 
nM

>  <pChEMBL Value>  (547) 
nan

>  <Comment>  (547) 
inactive

>  <Compound Key>  (547) 
SID103904908

>  <Assay>  (547) 
CHEMBL1963742

>  <Assay Description>  (547) 
PUBCHEM_BIOASSAY: Navigating the Kinome. (Class of assay: other) Panel member name: JAK3

>  <BAO Format>  (547) 
assay format

>  <Target>  (547) 
CHEMBL2148

>  <Target Pref. Name>  (547) 
Tyrosine-protein kinase JAK3

>  <Target Organism>  (547) 
Homo sapiens

>  <Target Type>  (547) 
SINGLE PROTEIN

>  <Document>  (547) 
CHEMBL1201862

>  <Source>  (547) 
PubChem BioAssays

>  <Max Phase>  (547) 
0

>  <#Ro5 Violations>  (547) 
0

>  <Molecular Weight>  (547) 
339.42

>  <Ligand Efficiency BEI>  (547) 
nan

>  <Ligand Efficiency LE>  (547) 
nan

>  <Ligand Efficiency LLE>  (547) 
nan

>  <Ligand Efficiency SEI>  (547) 
nan

>  <ALogP>  (547) 
3.7

>  <Assay Organism>  (547) 
nan

>  <Assay Tissue ChEMBL ID>  (547) 
nan

>  <Assay Tissue Name>  (547) 
nan

>  <Assay Cell Type>  (547) 
nan

>  <Assay Subcellular Fraction>  (547) 
nan

>  <Organism Tax ID>  (547) 
9606

>  <BAO Format ID>  (547) 
BAO_0000019

>  <Published Type>  (547) 
nan

>  <Published Relation>  (547) 
nan

>  <Published Value>  (547) 
nan

>  <Published Units>  (547) 
nan

>  <Canonical Smiles>  (547) 
COc1cccc(c1)C(C)NC(=O)c2cnc(s2)c3ccncc3

>  <Data Validity Comment>  (547) 
nan

>  <Document Journal>  (547) 
nan

>  <Document Year>  (547) 
nan

>  <SRC ID>  (547) 
7

>  <UO Units>  (547) 
UO_0000065

>  <Potential Duplicate>  (547) 
False

>  <Class>  (547) 
0

$$$$

     RDKit          2D

 30 33  0  0  0  0  0  0  0  0999 V2000
    3.0000    0.0000    0.0000 N   0  0  0  0  0  0  0  0  0  0  0  0
    1.5000    0.0000    0.0000 C   0  0  0  0  0  0  0  0  0  0  0  0
    0.7500   -1.2990    0.0000 N   0  0  0  0  0  0  0  0  0  0  0  0
   -0.7500   -1.2990    0.0000 C   0  0  0  0  0  0  0  0  0  0  0  0
   -1.5000    0.0000    0.0000 N   0  0  0  0  0  0  0  0  0  0  0  0
   -0.7500    1.2990    0.0000 N   0  0  0  0  0  0  0  0  0  0  0  0
   -1.2135    2.7256    0.0000 C   0  0  0  0  0  0  0  0  0  0  0  0
   -0.0000    3.6073    0.0000 C   0  0  0  0  0  0  0  0  0  0  0  0
    1.2135    2.7256    0.0000 C   0  0  0  0  0  0  0  0  0  0  0  0
    2.6401    3.1891    0.0000 C   0  0  0  0  0  0  0  0  0  0  0  0
    3.7548    2.1855    0.0000 O   0  0  0  0  0  0  0  0  0  0  0  0
    2.9520    4.6564    0.0000 N   0  0  0  0  0  0  0  0  0  0  0  0
    4.3786    5.1199    0.0000 C   0  0  0  0  0  0  0  0  0  0  0  0
    5.4933    4.1162    0.0000 C   0  0  0  0  0  0  0  0  0  0  0  0
    6.9199    4.5797    0.0000 C   0  0  0  0  0  0  0  0  0  0  0  0
    7.2317    6.0469    0.0000 C   0  0  0  0  0  0  0  0  0  0  0  0
    8.6583    6.5105    0.0000 N   0  0  0  0  0  0  0  0  0  0  0  0
    9.7730    5.5068    0.0000 C   0  0  0  0  0  0  0  0  0  0  0  0
    9.4612    4.0396    0.0000 O   0  0  0  0  0  0  0  0  0  0  0  0
   11.1996    5.9703    0.0000 N   0  0  0  0  0  0  0  0  0  0  0  0
   12.3143    4.9666    0.0000 C   0  0  0  0  0  0  0  0  0  0  0  0
   12.0025    3.4994    0.0000 C   0  0  0  0  0  0  0  0  0  0  0  0
   13.1172    2.4957    0.0000 C   0  0  0  0  0  0  0  0  0  0  0  0
   14.5438    2.9592    0.0000 C   0  0  0  0  0  0  0  0  0  0  0  0
   14.8556    4.4264    0.0000 C   0  0  0  0  0  0  0  0  0  0  0  0
   16.2822    4.8900    0.0000 F   0  0  0  0  0  0  0  0  0  0  0  0
   13.7409    5.4301    0.0000 C   0  0  0  0  0  0  0  0  0  0  0  0
    6.1170    7.0506    0.0000 C   0  0  0  0  0  0  0  0  0  0  0  0
    4.6904    6.5871    0.0000 C   0  0  0  0  0  0  0  0  0  0  0  0
    0.7500    1.2990    0.0000 C   0  0  0  0  0  0  0  0  0  0  0  0
  1  2  1  0
  2  3  2  0
  3  4  1  0
  4  5  2  0
  5  6  1  0
  6  7  1  0
  7  8  2  0
  8  9  1  0
  9 10  1  0
 10 11  2  0
 10 12  1  0
 12 13  1  0
 13 14  2  0
 14 15  1  0
 15 16  2  0
 16 17  1  0
 17 18  1  0
 18 19  2  0
 18 20  1  0
 20 21  1  0
 21 22  2  0
 22 23  1  0
 23 24  2  0
 24 25  1  0
 25 26  1  0
 25 27  2  0
 16 28  1  0
 28 29  2  0
  9 30  2  0
 30  2  1  0
 30  6  1  0
 29 13  1  0
 27 21  1  0
M  END
>  <Molecule>  (548) 
CHEMBL1990583

>  <Standard Type>  (548) 
Ki

>  <Standard Relation>  (548) 
=

>  <Standard Value>  (548) 
1258.93

>  <Standard Units>  (548) 
nM

>  <pChEMBL Value>  (548) 
5.9

>  <Comment>  (548) 
active

>  <Compound Key>  (548) 
SID103904451

>  <Assay>  (548) 
CHEMBL1963742

>  <Assay Description>  (548) 
PUBCHEM_BIOASSAY: Navigating the Kinome. (Class of assay: other) Panel member name: JAK3

>  <BAO Format>  (548) 
assay format

>  <Target>  (548) 
CHEMBL2148

>  <Target Pref. Name>  (548) 
Tyrosine-protein kinase JAK3

>  <Target Organism>  (548) 
Homo sapiens

>  <Target Type>  (548) 
SINGLE PROTEIN

>  <Document>  (548) 
CHEMBL1201862

>  <Source>  (548) 
PubChem BioAssays

>  <Max Phase>  (548) 
0

>  <#Ro5 Violations>  (548) 
0

>  <Molecular Weight>  (548) 
405.39

>  <Ligand Efficiency BEI>  (548) 
nan

>  <Ligand Efficiency LE>  (548) 
nan

>  <Ligand Efficiency LLE>  (548) 
nan

>  <Ligand Efficiency SEI>  (548) 
nan

>  <ALogP>  (548) 
3.35

>  <Assay Organism>  (548) 
nan

>  <Assay Tissue ChEMBL ID>  (548) 
nan

>  <Assay Tissue Name>  (548) 
nan

>  <Assay Cell Type>  (548) 
nan

>  <Assay Subcellular Fraction>  (548) 
nan

>  <Organism Tax ID>  (548) 
9606

>  <BAO Format ID>  (548) 
BAO_0000019

>  <Published Type>  (548) 
nan

>  <Published Relation>  (548) 
nan

>  <Published Value>  (548) 
nan

>  <Published Units>  (548) 
nan

>  <Canonical Smiles>  (548) 
Nc1ncnn2ccc(C(=O)Nc3ccc(NC(=O)Nc4cccc(F)c4)cc3)c12

>  <Data Validity Comment>  (548) 
nan

>  <Document Journal>  (548) 
nan

>  <Document Year>  (548) 
nan

>  <SRC ID>  (548) 
7

>  <UO Units>  (548) 
UO_0000065

>  <Potential Duplicate>  (548) 
False

>  <Class>  (548) 
1

$$$$

     RDKit          2D

 22 23  0  0  0  0  0  0  0  0999 V2000
    5.2500   -1.2990    0.0000 C   0  0  0  0  0  0  0  0  0  0  0  0
    3.7500   -1.2990    0.0000 C   0  0  0  0  0  0  0  0  0  0  0  0
    3.0000    0.0000    0.0000 O   0  0  0  0  0  0  0  0  0  0  0  0
    1.5000    0.0000    0.0000 C   0  0  0  0  0  0  0  0  0  0  0  0
    0.7500   -1.2990    0.0000 N   0  0  0  0  0  0  0  0  0  0  0  0
   -0.7500   -1.2990    0.0000 C   0  0  0  0  0  0  0  0  0  0  0  0
   -1.5000    0.0000    0.0000 C   0  0  0  0  0  0  0  0  0  0  0  0
   -0.7500    1.2990    0.0000 C   0  0  0  0  0  0  0  0  0  0  0  0
   -1.5000    2.5981    0.0000 N   0  0  0  0  0  0  0  0  0  0  0  0
    0.7500    1.2990    0.0000 C   0  0  0  0  0  0  0  0  0  0  0  0
    1.5000    2.5981    0.0000 C   0  0  0  0  0  0  0  0  0  0  0  0
    2.2500    3.8971    0.0000 N   0  0  0  0  0  0  0  0  0  0  0  0
   -1.5000   -2.5981    0.0000 C   0  0  0  0  0  0  0  0  0  0  0  0
   -0.7500   -3.8971    0.0000 O   0  0  0  0  0  0  0  0  0  0  0  0
   -3.0000   -2.5981    0.0000 N   0  0  0  0  0  0  0  0  0  0  0  0
   -3.7500   -3.8971    0.0000 C   0  0  0  0  0  0  0  0  0  0  0  0
   -5.2500   -3.8971    0.0000 C   0  0  0  0  0  0  0  0  0  0  0  0
   -6.0000   -2.5981    0.0000 C   0  0  0  0  0  0  0  0  0  0  0  0
   -7.5000   -2.5981    0.0000 C   0  0  0  0  0  0  0  0  0  0  0  0
   -8.2500   -3.8971    0.0000 N   0  0  0  0  0  0  0  0  0  0  0  0
   -7.5000   -5.1962    0.0000 C   0  0  0  0  0  0  0  0  0  0  0  0
   -6.0000   -5.1962    0.0000 C   0  0  0  0  0  0  0  0  0  0  0  0
  1  2  1  0
  2  3  1  0
  3  4  1  0
  4  5  2  0
  5  6  1  0
  6  7  2  0
  7  8  1  0
  8  9  1  0
  8 10  2  0
 10 11  1  0
 11 12  3  0
  6 13  1  0
 13 14  2  0
 13 15  1  0
 15 16  1  0
 16 17  1  0
 17 18  2  0
 18 19  1  0
 19 20  2  0
 20 21  1  0
 21 22  2  0
 10  4  1  0
 22 17  1  0
M  END
>  <Molecule>  (549) 
CHEMBL1984206

>  <Standard Type>  (549) 
Ki

>  <Standard Relation>  (549) 
>

>  <Standard Value>  (549) 
1584.89

>  <Standard Units>  (549) 
nM

>  <pChEMBL Value>  (549) 
nan

>  <Comment>  (549) 
inactive

>  <Compound Key>  (549) 
SID103905186

>  <Assay>  (549) 
CHEMBL1963742

>  <Assay Description>  (549) 
PUBCHEM_BIOASSAY: Navigating the Kinome. (Class of assay: other) Panel member name: JAK3

>  <BAO Format>  (549) 
assay format

>  <Target>  (549) 
CHEMBL2148

>  <Target Pref. Name>  (549) 
Tyrosine-protein kinase JAK3

>  <Target Organism>  (549) 
Homo sapiens

>  <Target Type>  (549) 
SINGLE PROTEIN

>  <Document>  (549) 
CHEMBL1201862

>  <Source>  (549) 
PubChem BioAssays

>  <Max Phase>  (549) 
0

>  <#Ro5 Violations>  (549) 
0

>  <Molecular Weight>  (549) 
297.32

>  <Ligand Efficiency BEI>  (549) 
nan

>  <Ligand Efficiency LE>  (549) 
nan

>  <Ligand Efficiency LLE>  (549) 
nan

>  <Ligand Efficiency SEI>  (549) 
nan

>  <ALogP>  (549) 
1.26

>  <Assay Organism>  (549) 
nan

>  <Assay Tissue ChEMBL ID>  (549) 
nan

>  <Assay Tissue Name>  (549) 
nan

>  <Assay Cell Type>  (549) 
nan

>  <Assay Subcellular Fraction>  (549) 
nan

>  <Organism Tax ID>  (549) 
9606

>  <BAO Format ID>  (549) 
BAO_0000019

>  <Published Type>  (549) 
nan

>  <Published Relation>  (549) 
nan

>  <Published Value>  (549) 
nan

>  <Published Units>  (549) 
nan

>  <Canonical Smiles>  (549) 
CCOc1nc(cc(N)c1C#N)C(=O)NCc2ccncc2

>  <Data Validity Comment>  (549) 
nan

>  <Document Journal>  (549) 
nan

>  <Document Year>  (549) 
nan

>  <SRC ID>  (549) 
7

>  <UO Units>  (549) 
UO_0000065

>  <Potential Duplicate>  (549) 
False

>  <Class>  (549) 
0

$$$$

     RDKit          2D

 28 31  0  0  0  0  0  0  0  0999 V2000
   -3.0000   -5.1962    0.0000 C   0  0  0  0  0  0  0  0  0  0  0  0
   -3.7500   -3.8971    0.0000 C   0  0  0  0  0  0  0  0  0  0  0  0
   -5.2500   -3.8971    0.0000 C   0  0  0  0  0  0  0  0  0  0  0  0
   -6.0000   -2.5981    0.0000 C   0  0  0  0  0  0  0  0  0  0  0  0
   -7.5000   -2.5981    0.0000 O   0  0  0  0  0  0  0  0  0  0  0  0
   -5.2500   -1.2990    0.0000 C   0  0  0  0  0  0  0  0  0  0  0  0
   -3.7500   -1.2990    0.0000 C   0  0  0  0  0  0  0  0  0  0  0  0
   -3.0000   -2.5981    0.0000 C   0  0  0  0  0  0  0  0  0  0  0  0
   -1.5000   -2.5981    0.0000 N   0  0  0  0  0  0  0  0  0  0  0  0
   -0.7500   -3.8971    0.0000 C   0  0  0  0  0  0  0  0  0  0  0  0
    0.7500   -3.8971    0.0000 C   0  0  0  0  0  0  0  0  0  0  0  0
    1.5000   -5.1962    0.0000 C   0  0  0  0  0  0  0  0  0  0  0  0
    3.0000   -5.1962    0.0000 O   0  0  0  0  0  0  0  0  0  0  0  0
    0.7500   -6.4952    0.0000 N   0  0  0  0  0  0  0  0  0  0  0  0
    1.5000   -2.5981    0.0000 C   0  0  0  0  0  0  0  0  0  0  0  0
    3.0000   -2.5981    0.0000 O   0  0  0  0  0  0  0  0  0  0  0  0
    0.7500   -1.2990    0.0000 C   0  0  0  0  0  0  0  0  0  0  0  0
    1.5000    0.0000    0.0000 C   0  0  0  0  0  0  0  0  0  0  0  0
    0.7500    1.2990    0.0000 C   0  0  0  0  0  0  0  0  0  0  0  0
   -0.7500    1.2990    0.0000 C   0  0  0  0  0  0  0  0  0  0  0  0
   -1.5000    0.0000    0.0000 C   0  0  0  0  0  0  0  0  0  0  0  0
   -0.7500   -1.2990    0.0000 C   0  0  0  0  0  0  0  0  0  0  0  0
   -1.5000    2.5981    0.0000 C   0  0  0  0  0  0  0  0  0  0  0  0
   -0.7500    3.8971    0.0000 C   0  0  0  0  0  0  0  0  0  0  0  0
   -1.5000    5.1962    0.0000 C   0  0  0  0  0  0  0  0  0  0  0  0
   -3.0000    5.1962    0.0000 N   0  0  0  0  0  0  0  0  0  0  0  0
   -3.7500    3.8971    0.0000 C   0  0  0  0  0  0  0  0  0  0  0  0
   -3.0000    2.5981    0.0000 C   0  0  0  0  0  0  0  0  0  0  0  0
  1  2  1  0
  2  3  2  0
  3  4  1  0
  4  5  1  0
  4  6  2  0
  6  7  1  0
  7  8  2  0
  8  9  1  0
  9 10  1  0
 10 11  2  0
 11 12  1  0
 12 13  2  0
 12 14  1  0
 11 15  1  0
 15 16  2  0
 15 17  1  0
 17 18  2  0
 18 19  1  0
 19 20  2  0
 20 21  1  0
 21 22  2  0
 20 23  1  0
 23 24  2  0
 24 25  1  0
 25 26  2  0
 26 27  1  0
 27 28  2  0
  8  2  1  0
 22  9  1  0
 22 17  1  0
 28 23  1  0
M  END
>  <Molecule>  (550) 
CHEMBL340921

>  <Standard Type>  (550) 
Ki

>  <Standard Relation>  (550) 
>

>  <Standard Value>  (550) 
1584.89

>  <Standard Units>  (550) 
nM

>  <pChEMBL Value>  (550) 
nan

>  <Comment>  (550) 
inactive

>  <Compound Key>  (550) 
SID103905356

>  <Assay>  (550) 
CHEMBL1963742

>  <Assay Description>  (550) 
PUBCHEM_BIOASSAY: Navigating the Kinome. (Class of assay: other) Panel member name: JAK3

>  <BAO Format>  (550) 
assay format

>  <Target>  (550) 
CHEMBL2148

>  <Target Pref. Name>  (550) 
Tyrosine-protein kinase JAK3

>  <Target Organism>  (550) 
Homo sapiens

>  <Target Type>  (550) 
SINGLE PROTEIN

>  <Document>  (550) 
CHEMBL1201862

>  <Source>  (550) 
PubChem BioAssays

>  <Max Phase>  (550) 
0

>  <#Ro5 Violations>  (550) 
0

>  <Molecular Weight>  (550) 
371.4

>  <Ligand Efficiency BEI>  (550) 
nan

>  <Ligand Efficiency LE>  (550) 
nan

>  <Ligand Efficiency LLE>  (550) 
nan

>  <Ligand Efficiency SEI>  (550) 
nan

>  <ALogP>  (550) 
3.17

>  <Assay Organism>  (550) 
nan

>  <Assay Tissue ChEMBL ID>  (550) 
nan

>  <Assay Tissue Name>  (550) 
nan

>  <Assay Cell Type>  (550) 
nan

>  <Assay Subcellular Fraction>  (550) 
nan

>  <Organism Tax ID>  (550) 
9606

>  <BAO Format ID>  (550) 
BAO_0000019

>  <Published Type>  (550) 
nan

>  <Published Relation>  (550) 
nan

>  <Published Value>  (550) 
nan

>  <Published Units>  (550) 
nan

>  <Canonical Smiles>  (550) 
Cc1cc(O)ccc1N2C=C(C(=O)N)C(=O)c3ccc(cc23)c4ccncc4

>  <Data Validity Comment>  (550) 
nan

>  <Document Journal>  (550) 
nan

>  <Document Year>  (550) 
nan

>  <SRC ID>  (550) 
7

>  <UO Units>  (550) 
UO_0000065

>  <Potential Duplicate>  (550) 
False

>  <Class>  (550) 
0

$$$$

     RDKit          2D

 26 29  0  0  0  0  0  0  0  0999 V2000
    4.8068    9.4767    0.0000 O   0  0  0  0  0  0  0  0  0  0  0  0
    3.3802    9.0132    0.0000 C   0  0  0  0  0  0  0  0  0  0  0  0
    2.2655   10.0169    0.0000 O   0  0  0  0  0  0  0  0  0  0  0  0
    3.0684    7.5459    0.0000 C   0  0  0  0  0  0  0  0  0  0  0  0
    4.1831    6.5422    0.0000 C   0  0  0  0  0  0  0  0  0  0  0  0
    3.8712    5.0750    0.0000 C   0  0  0  0  0  0  0  0  0  0  0  0
    2.4446    4.6115    0.0000 C   0  0  0  0  0  0  0  0  0  0  0  0
    1.3299    5.6152    0.0000 C   0  0  0  0  0  0  0  0  0  0  0  0
    1.6418    7.0824    0.0000 C   0  0  0  0  0  0  0  0  0  0  0  0
    0.5271    8.0861    0.0000 N   0  0  0  0  0  0  0  0  0  0  0  0
   -0.8995    7.6226    0.0000 C   0  0  0  0  0  0  0  0  0  0  0  0
   -2.0143    8.6263    0.0000 C   0  0  0  0  0  0  0  0  0  0  0  0
   -3.4408    8.1628    0.0000 C   0  0  0  0  0  0  0  0  0  0  0  0
   -3.7527    6.6955    0.0000 N   0  0  0  0  0  0  0  0  0  0  0  0
   -2.6380    5.6918    0.0000 C   0  0  0  0  0  0  0  0  0  0  0  0
   -2.9499    4.2246    0.0000 N   0  0  0  0  0  0  0  0  0  0  0  0
   -1.8351    3.2209    0.0000 C   0  0  0  0  0  0  0  0  0  0  0  0
   -0.4086    3.6844    0.0000 C   0  0  0  0  0  0  0  0  0  0  0  0
    0.7062    2.6807    0.0000 C   0  0  0  0  0  0  0  0  0  0  0  0
    0.3943    1.2135    0.0000 C   0  0  0  0  0  0  0  0  0  0  0  0
    1.2760    0.0000    0.0000 C   0  0  0  0  0  0  0  0  0  0  0  0
    0.3943   -1.2135    0.0000 N   0  0  0  0  0  0  0  0  0  0  0  0
   -1.0323   -0.7500    0.0000 N   0  0  0  0  0  0  0  0  0  0  0  0
   -1.0323    0.7500    0.0000 C   0  0  0  0  0  0  0  0  0  0  0  0
   -2.1470    1.7537    0.0000 C   0  0  0  0  0  0  0  0  0  0  0  0
   -1.2114    6.1554    0.0000 N   0  0  0  0  0  0  0  0  0  0  0  0
  1  2  1  0
  2  3  2  0
  2  4  1  0
  4  5  2  0
  5  6  1  0
  6  7  2  0
  7  8  1  0
  8  9  2  0
  9 10  1  0
 10 11  1  0
 11 12  2  0
 12 13  1  0
 13 14  2  0
 14 15  1  0
 15 16  1  0
 16 17  1  0
 17 18  2  0
 18 19  1  0
 19 20  2  0
 20 21  1  0
 21 22  2  0
 22 23  1  0
 23 24  1  0
 24 25  2  0
 15 26  2  0
  9  4  1  0
 26 11  1  0
 25 17  1  0
 24 20  1  0
M  END
>  <Molecule>  (551) 
CHEMBL244378

>  <Standard Type>  (551) 
Ki

>  <Standard Relation>  (551) 
=

>  <Standard Value>  (551) 
10.0

>  <Standard Units>  (551) 
nM

>  <pChEMBL Value>  (551) 
8.0

>  <Comment>  (551) 
active

>  <Compound Key>  (551) 
SID103904604

>  <Assay>  (551) 
CHEMBL1963742

>  <Assay Description>  (551) 
PUBCHEM_BIOASSAY: Navigating the Kinome. (Class of assay: other) Panel member name: JAK3

>  <BAO Format>  (551) 
assay format

>  <Target>  (551) 
CHEMBL2148

>  <Target Pref. Name>  (551) 
Tyrosine-protein kinase JAK3

>  <Target Organism>  (551) 
Homo sapiens

>  <Target Type>  (551) 
SINGLE PROTEIN

>  <Document>  (551) 
CHEMBL1201862

>  <Source>  (551) 
PubChem BioAssays

>  <Max Phase>  (551) 
0

>  <#Ro5 Violations>  (551) 
0

>  <Molecular Weight>  (551) 
346.35

>  <Ligand Efficiency BEI>  (551) 
nan

>  <Ligand Efficiency LE>  (551) 
nan

>  <Ligand Efficiency LLE>  (551) 
nan

>  <Ligand Efficiency SEI>  (551) 
nan

>  <ALogP>  (551) 
3.54

>  <Assay Organism>  (551) 
nan

>  <Assay Tissue ChEMBL ID>  (551) 
nan

>  <Assay Tissue Name>  (551) 
nan

>  <Assay Cell Type>  (551) 
nan

>  <Assay Subcellular Fraction>  (551) 
nan

>  <Organism Tax ID>  (551) 
9606

>  <BAO Format ID>  (551) 
BAO_0000019

>  <Published Type>  (551) 
nan

>  <Published Relation>  (551) 
nan

>  <Published Value>  (551) 
nan

>  <Published Units>  (551) 
nan

>  <Canonical Smiles>  (551) 
OC(=O)c1ccccc1Nc2ccnc(Nc3ccc4cn[nH]c4c3)n2

>  <Data Validity Comment>  (551) 
nan

>  <Document Journal>  (551) 
nan

>  <Document Year>  (551) 
nan

>  <SRC ID>  (551) 
7

>  <UO Units>  (551) 
UO_0000065

>  <Potential Duplicate>  (551) 
False

>  <Class>  (551) 
1

$$$$

     RDKit          2D

 32 37  0  0  0  0  0  0  0  0999 V2000
   -4.3786   -5.1199    0.0000 N   0  0  0  0  0  0  0  0  0  0  0  0
   -2.9520   -4.6564    0.0000 C   0  0  0  0  0  0  0  0  0  0  0  0
   -1.8373   -5.6601    0.0000 O   0  0  0  0  0  0  0  0  0  0  0  0
   -2.6401   -3.1891    0.0000 C   0  0  0  0  0  0  0  0  0  0  0  0
   -1.2135   -2.7256    0.0000 N   0  0  0  0  0  0  0  0  0  0  0  0
   -0.0000   -3.6073    0.0000 C   0  0  0  0  0  0  0  0  0  0  0  0
    1.2135   -2.7256    0.0000 C   0  0  0  0  0  0  0  0  0  0  0  0
    2.6401   -3.1891    0.0000 C   0  0  0  0  0  0  0  0  0  0  0  0
    3.7548   -2.1855    0.0000 C   0  0  0  0  0  0  0  0  0  0  0  0
    5.1814   -2.6490    0.0000 C   0  0  0  0  0  0  0  0  0  0  0  0
    6.2961   -1.6453    0.0000 C   0  0  0  0  0  0  0  0  0  0  0  0
    7.7634   -1.9571    0.0000 C   0  0  0  0  0  0  0  0  0  0  0  0
    8.5134   -0.6581    0.0000 C   0  0  0  0  0  0  0  0  0  0  0  0
    9.9806   -0.3462    0.0000 C   0  0  0  0  0  0  0  0  0  0  0  0
   10.4441    1.0803    0.0000 C   0  0  0  0  0  0  0  0  0  0  0  0
    9.4404    2.1951    0.0000 C   0  0  0  0  0  0  0  0  0  0  0  0
    7.9732    1.8832    0.0000 C   0  0  0  0  0  0  0  0  0  0  0  0
    7.5097    0.4566    0.0000 C   0  0  0  0  0  0  0  0  0  0  0  0
    6.1393   -0.1535    0.0000 S   0  0  0  0  0  0  0  0  0  0  0  0
    5.4933   -4.1162    0.0000 C   0  0  0  0  0  0  0  0  0  0  0  0
    6.7923   -4.8662    0.0000 N   0  0  0  0  0  0  0  0  0  0  0  0
    6.4805   -6.3334    0.0000 N   0  0  0  0  0  0  0  0  0  0  0  0
    4.9887   -6.4902    0.0000 C   0  0  0  0  0  0  0  0  0  0  0  0
    4.3786   -5.1199    0.0000 C   0  0  0  0  0  0  0  0  0  0  0  0
    2.9520   -4.6564    0.0000 C   0  0  0  0  0  0  0  0  0  0  0  0
    0.7500   -1.2990    0.0000 C   0  0  0  0  0  0  0  0  0  0  0  0
    1.5000    0.0000    0.0000 N   0  0  0  0  0  0  0  0  0  0  0  0
    0.7500    1.2990    0.0000 C   0  0  0  0  0  0  0  0  0  0  0  0
    1.5000    2.5981    0.0000 N   0  0  0  0  0  0  0  0  0  0  0  0
   -0.7500    1.2990    0.0000 N   0  0  0  0  0  0  0  0  0  0  0  0
   -1.5000    0.0000    0.0000 C   0  0  0  0  0  0  0  0  0  0  0  0
   -0.7500   -1.2990    0.0000 C   0  0  0  0  0  0  0  0  0  0  0  0
  1  2  1  0
  2  3  2  0
  2  4  1  0
  4  5  1  0
  5  6  1  0
  6  7  2  0
  7  8  1  0
  8  9  2  0
  9 10  1  0
 10 11  1  0
 11 12  2  0
 12 13  1  0
 13 14  2  0
 14 15  1  0
 15 16  2  0
 16 17  1  0
 17 18  2  0
 18 19  1  0
 10 20  2  0
 20 21  1  0
 21 22  1  0
 22 23  2  0
 23 24  1  0
 24 25  2  0
  7 26  1  0
 26 27  2  0
 27 28  1  0
 28 29  1  0
 28 30  2  0
 30 31  1  0
 31 32  2  0
 32  5  1  0
 25  8  1  0
 19 11  1  0
 18 13  1  0
 24 20  1  0
 32 26  1  0
M  END
>  <Molecule>  (552) 
CHEMBL1985095

>  <Standard Type>  (552) 
Ki

>  <Standard Relation>  (552) 
>

>  <Standard Value>  (552) 
1584.89

>  <Standard Units>  (552) 
nM

>  <pChEMBL Value>  (552) 
nan

>  <Comment>  (552) 
inactive

>  <Compound Key>  (552) 
SID103904962

>  <Assay>  (552) 
CHEMBL1963742

>  <Assay Description>  (552) 
PUBCHEM_BIOASSAY: Navigating the Kinome. (Class of assay: other) Panel member name: JAK3

>  <BAO Format>  (552) 
assay format

>  <Target>  (552) 
CHEMBL2148

>  <Target Pref. Name>  (552) 
Tyrosine-protein kinase JAK3

>  <Target Organism>  (552) 
Homo sapiens

>  <Target Type>  (552) 
SINGLE PROTEIN

>  <Document>  (552) 
CHEMBL1201862

>  <Source>  (552) 
PubChem BioAssays

>  <Max Phase>  (552) 
0

>  <#Ro5 Violations>  (552) 
0

>  <Molecular Weight>  (552) 
439.5

>  <Ligand Efficiency BEI>  (552) 
nan

>  <Ligand Efficiency LE>  (552) 
nan

>  <Ligand Efficiency LLE>  (552) 
nan

>  <Ligand Efficiency SEI>  (552) 
nan

>  <ALogP>  (552) 
3.92

>  <Assay Organism>  (552) 
nan

>  <Assay Tissue ChEMBL ID>  (552) 
nan

>  <Assay Tissue Name>  (552) 
nan

>  <Assay Cell Type>  (552) 
nan

>  <Assay Subcellular Fraction>  (552) 
nan

>  <Organism Tax ID>  (552) 
9606

>  <BAO Format ID>  (552) 
BAO_0000019

>  <Published Type>  (552) 
nan

>  <Published Relation>  (552) 
nan

>  <Published Value>  (552) 
nan

>  <Published Units>  (552) 
nan

>  <Canonical Smiles>  (552) 
NC(=O)Cn1cc(c2cc(c3cc4ccccc4s3)c5[nH]ncc5c2)c6nc(N)ncc16

>  <Data Validity Comment>  (552) 
nan

>  <Document Journal>  (552) 
nan

>  <Document Year>  (552) 
nan

>  <SRC ID>  (552) 
7

>  <UO Units>  (552) 
UO_0000065

>  <Potential Duplicate>  (552) 
False

>  <Class>  (552) 
0

$$$$

     RDKit          2D

 30 34  0  0  0  0  0  0  0  0999 V2000
   -3.1036   -1.7626    0.0000 C   0  0  0  0  0  0  0  0  0  0  0  0
   -2.6401   -3.1891    0.0000 C   0  0  0  0  0  0  0  0  0  0  0  0
   -2.1766   -4.6157    0.0000 C   0  0  0  0  0  0  0  0  0  0  0  0
   -4.0667   -3.6527    0.0000 C   0  0  0  0  0  0  0  0  0  0  0  0
   -4.3786   -5.1199    0.0000 O   0  0  0  0  0  0  0  0  0  0  0  0
   -1.2135   -2.7256    0.0000 C   0  0  0  0  0  0  0  0  0  0  0  0
   -0.0000   -3.6073    0.0000 N   0  0  0  0  0  0  0  0  0  0  0  0
    1.2135   -2.7256    0.0000 N   0  0  0  0  0  0  0  0  0  0  0  0
    0.7500   -1.2990    0.0000 C   0  0  0  0  0  0  0  0  0  0  0  0
    1.5000    0.0000    0.0000 C   0  0  0  0  0  0  0  0  0  0  0  0
    0.7500    1.2990    0.0000 C   0  0  0  0  0  0  0  0  0  0  0  0
   -0.7500    1.2990    0.0000 C   0  0  0  0  0  0  0  0  0  0  0  0
   -1.5000    0.0000    0.0000 N   0  0  0  0  0  0  0  0  0  0  0  0
   -0.7500   -1.2990    0.0000 N   0  0  0  0  0  0  0  0  0  0  0  0
   -1.5000    2.5981    0.0000 C   0  0  0  0  0  0  0  0  0  0  0  0
   -2.9918    2.7549    0.0000 C   0  0  0  0  0  0  0  0  0  0  0  0
   -3.3037    4.2221    0.0000 N   0  0  0  0  0  0  0  0  0  0  0  0
   -2.0046    4.9721    0.0000 C   0  0  0  0  0  0  0  0  0  0  0  0
   -1.3945    6.3424    0.0000 O   0  0  0  0  0  0  0  0  0  0  0  0
    0.0973    6.1856    0.0000 C   0  0  0  0  0  0  0  0  0  0  0  0
    0.4091    4.7184    0.0000 C   0  0  0  0  0  0  0  0  0  0  0  0
   -0.8899    3.9684    0.0000 N   0  0  0  0  0  0  0  0  0  0  0  0
   -3.9955    1.6402    0.0000 C   0  0  0  0  0  0  0  0  0  0  0  0
   -3.5320    0.2136    0.0000 C   0  0  0  0  0  0  0  0  0  0  0  0
   -4.5356   -0.9012    0.0000 C   0  0  0  0  0  0  0  0  0  0  0  0
   -6.0029   -0.5893    0.0000 C   0  0  0  0  0  0  0  0  0  0  0  0
   -7.0066   -1.7040    0.0000 F   0  0  0  0  0  0  0  0  0  0  0  0
   -6.4664    0.8373    0.0000 C   0  0  0  0  0  0  0  0  0  0  0  0
   -5.4627    1.9520    0.0000 C   0  0  0  0  0  0  0  0  0  0  0  0
   -5.9262    3.3786    0.0000 F   0  0  0  0  0  0  0  0  0  0  0  0
  1  2  1  0
  2  3  1  0
  2  4  1  0
  4  5  1  0
  2  6  1  0
  6  7  2  0
  7  8  1  0
  8  9  2  0
  9 10  1  0
 10 11  2  0
 11 12  1  0
 12 13  2  0
 13 14  1  0
 12 15  1  0
 15 16  2  0
 16 17  1  0
 17 18  2  0
 18 19  1  0
 19 20  1  0
 20 21  2  0
 21 22  1  0
 16 23  1  0
 23 24  2  0
 24 25  1  0
 25 26  2  0
 26 27  1  0
 26 28  1  0
 28 29  2  0
 29 30  1  0
 14  6  1  0
 14  9  1  0
 22 15  1  0
 22 18  1  0
 29 23  1  0
M  END
>  <Molecule>  (553) 
CHEMBL1972849

>  <Standard Type>  (553) 
Ki

>  <Standard Relation>  (553) 
>

>  <Standard Value>  (553) 
1584.89

>  <Standard Units>  (553) 
nM

>  <pChEMBL Value>  (553) 
nan

>  <Comment>  (553) 
inactive

>  <Compound Key>  (553) 
SID103905069

>  <Assay>  (553) 
CHEMBL1963742

>  <Assay Description>  (553) 
PUBCHEM_BIOASSAY: Navigating the Kinome. (Class of assay: other) Panel member name: JAK3

>  <BAO Format>  (553) 
assay format

>  <Target>  (553) 
CHEMBL2148

>  <Target Pref. Name>  (553) 
Tyrosine-protein kinase JAK3

>  <Target Organism>  (553) 
Homo sapiens

>  <Target Type>  (553) 
SINGLE PROTEIN

>  <Document>  (553) 
CHEMBL1201862

>  <Source>  (553) 
PubChem BioAssays

>  <Max Phase>  (553) 
0

>  <#Ro5 Violations>  (553) 
0

>  <Molecular Weight>  (553) 
410.38

>  <Ligand Efficiency BEI>  (553) 
nan

>  <Ligand Efficiency LE>  (553) 
nan

>  <Ligand Efficiency LLE>  (553) 
nan

>  <Ligand Efficiency SEI>  (553) 
nan

>  <ALogP>  (553) 
3.25

>  <Assay Organism>  (553) 
nan

>  <Assay Tissue ChEMBL ID>  (553) 
nan

>  <Assay Tissue Name>  (553) 
nan

>  <Assay Cell Type>  (553) 
nan

>  <Assay Subcellular Fraction>  (553) 
nan

>  <Organism Tax ID>  (553) 
9606

>  <BAO Format ID>  (553) 
BAO_0000019

>  <Published Type>  (553) 
nan

>  <Published Relation>  (553) 
nan

>  <Published Value>  (553) 
nan

>  <Published Units>  (553) 
nan

>  <Canonical Smiles>  (553) 
CC(C)(CO)c1nnc2ccc(nn12)c3c(nc4occn34)c5ccc(F)cc5F

>  <Data Validity Comment>  (553) 
nan

>  <Document Journal>  (553) 
nan

>  <Document Year>  (553) 
nan

>  <SRC ID>  (553) 
7

>  <UO Units>  (553) 
UO_0000065

>  <Potential Duplicate>  (553) 
False

>  <Class>  (553) 
0

$$$$

     RDKit          2D

 19 21  0  0  0  0  0  0  0  0999 V2000
   -8.6640    8.4587    0.0000 Cl  0  0  0  0  0  0  0  0  0  0  0  0
   -7.9140    7.1597    0.0000 C   0  0  0  0  0  0  0  0  0  0  0  0
   -6.4140    7.1597    0.0000 C   0  0  0  0  0  0  0  0  0  0  0  0
   -5.6640    5.8606    0.0000 C   0  0  0  0  0  0  0  0  0  0  0  0
   -6.4140    4.5616    0.0000 C   0  0  0  0  0  0  0  0  0  0  0  0
   -5.6640    3.2626    0.0000 C   0  0  0  0  0  0  0  0  0  0  0  0
   -4.1640    3.2626    0.0000 C   0  0  0  0  0  0  0  0  0  0  0  0
   -3.4140    4.5616    0.0000 O   0  0  0  0  0  0  0  0  0  0  0  0
   -3.4140    1.9635    0.0000 N   0  0  0  0  0  0  0  0  0  0  0  0
   -1.9140    1.9635    0.0000 C   0  0  0  0  0  0  0  0  0  0  0  0
   -1.0323    3.1771    0.0000 N   0  0  0  0  0  0  0  0  0  0  0  0
    0.3943    2.7135    0.0000 N   0  0  0  0  0  0  0  0  0  0  0  0
    0.3943    1.2135    0.0000 C   0  0  0  0  0  0  0  0  0  0  0  0
    1.2760    0.0000    0.0000 C   0  0  0  0  0  0  0  0  0  0  0  0
    0.3943   -1.2135    0.0000 C   0  0  0  0  0  0  0  0  0  0  0  0
   -1.0323   -0.7500    0.0000 C   0  0  0  0  0  0  0  0  0  0  0  0
   -1.0323    0.7500    0.0000 C   0  0  0  0  0  0  0  0  0  0  0  0
   -7.9140    4.5616    0.0000 C   0  0  0  0  0  0  0  0  0  0  0  0
   -8.6640    5.8606    0.0000 C   0  0  0  0  0  0  0  0  0  0  0  0
  1  2  1  0
  2  3  2  0
  3  4  1  0
  4  5  2  0
  5  6  1  0
  6  7  1  0
  7  8  2  0
  7  9  1  0
  9 10  1  0
 10 11  1  0
 11 12  1  0
 12 13  2  0
 13 14  1  0
 14 15  1  0
 15 16  1  0
 16 17  1  0
  5 18  1  0
 18 19  2  0
 19  2  1  0
 17 10  2  0
 17 13  1  0
M  END
>  <Molecule>  (554) 
CHEMBL2003482

>  <Standard Type>  (554) 
Ki

>  <Standard Relation>  (554) 
>

>  <Standard Value>  (554) 
1584.89

>  <Standard Units>  (554) 
nM

>  <pChEMBL Value>  (554) 
nan

>  <Comment>  (554) 
inactive

>  <Compound Key>  (554) 
SID103905510

>  <Assay>  (554) 
CHEMBL1963742

>  <Assay Description>  (554) 
PUBCHEM_BIOASSAY: Navigating the Kinome. (Class of assay: other) Panel member name: JAK3

>  <BAO Format>  (554) 
assay format

>  <Target>  (554) 
CHEMBL2148

>  <Target Pref. Name>  (554) 
Tyrosine-protein kinase JAK3

>  <Target Organism>  (554) 
Homo sapiens

>  <Target Type>  (554) 
SINGLE PROTEIN

>  <Document>  (554) 
CHEMBL1201862

>  <Source>  (554) 
PubChem BioAssays

>  <Max Phase>  (554) 
0

>  <#Ro5 Violations>  (554) 
0

>  <Molecular Weight>  (554) 
275.74

>  <Ligand Efficiency BEI>  (554) 
nan

>  <Ligand Efficiency LE>  (554) 
nan

>  <Ligand Efficiency LLE>  (554) 
nan

>  <Ligand Efficiency SEI>  (554) 
nan

>  <ALogP>  (554) 
2.73

>  <Assay Organism>  (554) 
nan

>  <Assay Tissue ChEMBL ID>  (554) 
nan

>  <Assay Tissue Name>  (554) 
nan

>  <Assay Cell Type>  (554) 
nan

>  <Assay Subcellular Fraction>  (554) 
nan

>  <Organism Tax ID>  (554) 
9606

>  <BAO Format ID>  (554) 
BAO_0000019

>  <Published Type>  (554) 
nan

>  <Published Relation>  (554) 
nan

>  <Published Value>  (554) 
nan

>  <Published Units>  (554) 
nan

>  <Canonical Smiles>  (554) 
Clc1ccc(CC(=O)Nc2[nH]nc3CCCc23)cc1

>  <Data Validity Comment>  (554) 
nan

>  <Document Journal>  (554) 
nan

>  <Document Year>  (554) 
nan

>  <SRC ID>  (554) 
7

>  <UO Units>  (554) 
UO_0000065

>  <Potential Duplicate>  (554) 
False

>  <Class>  (554) 
0

$$$$

     RDKit          2D

 26 29  0  0  0  0  0  0  0  0999 V2000
   -2.6401   -3.1891    0.0000 N   0  0  0  0  0  0  0  0  0  0  0  0
   -1.2135   -2.7256    0.0000 C   0  0  0  0  0  0  0  0  0  0  0  0
   -0.0000   -3.6073    0.0000 N   0  0  0  0  0  0  0  0  0  0  0  0
    1.2135   -2.7256    0.0000 N   0  0  0  0  0  0  0  0  0  0  0  0
    0.7500   -1.2990    0.0000 C   0  0  0  0  0  0  0  0  0  0  0  0
    1.5000    0.0000    0.0000 C   0  0  0  0  0  0  0  0  0  0  0  0
    0.7500    1.2990    0.0000 C   0  0  0  0  0  0  0  0  0  0  0  0
   -0.7500    1.2990    0.0000 C   0  0  0  0  0  0  0  0  0  0  0  0
   -1.5000    0.0000    0.0000 C   0  0  0  0  0  0  0  0  0  0  0  0
   -3.0000    0.0000    0.0000 C   0  0  0  0  0  0  0  0  0  0  0  0
   -3.7500    1.2990    0.0000 C   0  0  0  0  0  0  0  0  0  0  0  0
   -5.2500    1.2990    0.0000 C   0  0  0  0  0  0  0  0  0  0  0  0
   -6.0000    0.0000    0.0000 C   0  0  0  0  0  0  0  0  0  0  0  0
   -7.5000    0.0000    0.0000 N   0  0  0  0  0  0  0  0  0  0  0  0
   -8.2500    1.2990    0.0000 C   0  0  0  0  0  0  0  0  0  0  0  0
   -7.5000    2.5981    0.0000 O   0  0  0  0  0  0  0  0  0  0  0  0
   -9.7500    1.2990    0.0000 N   0  0  0  0  0  0  0  0  0  0  0  0
  -10.5000    2.5981    0.0000 C   0  0  0  0  0  0  0  0  0  0  0  0
   -9.7500    3.8971    0.0000 C   0  0  0  0  0  0  0  0  0  0  0  0
  -10.5000    5.1962    0.0000 C   0  0  0  0  0  0  0  0  0  0  0  0
  -12.0000    5.1962    0.0000 C   0  0  0  0  0  0  0  0  0  0  0  0
  -12.7500    3.8971    0.0000 C   0  0  0  0  0  0  0  0  0  0  0  0
  -12.0000    2.5981    0.0000 C   0  0  0  0  0  0  0  0  0  0  0  0
   -5.2500   -1.2990    0.0000 C   0  0  0  0  0  0  0  0  0  0  0  0
   -3.7500   -1.2990    0.0000 C   0  0  0  0  0  0  0  0  0  0  0  0
   -0.7500   -1.2990    0.0000 C   0  0  0  0  0  0  0  0  0  0  0  0
  1  2  1  0
  2  3  2  0
  3  4  1  0
  4  5  1  0
  5  6  2  0
  6  7  1  0
  7  8  2  0
  8  9  1  0
  9 10  1  0
 10 11  2  0
 11 12  1  0
 12 13  2  0
 13 14  1  0
 14 15  1  0
 15 16  2  0
 15 17  1  0
 17 18  1  0
 18 19  2  0
 19 20  1  0
 20 21  2  0
 21 22  1  0
 22 23  2  0
 13 24  1  0
 24 25  2  0
  9 26  2  0
 26  2  1  0
 26  5  1  0
 25 10  1  0
 23 18  1  0
M  END
>  <Molecule>  (555) 
CHEMBL219722

>  <Standard Type>  (555) 
Ki

>  <Standard Relation>  (555) 
=

>  <Standard Value>  (555) 
1258.93

>  <Standard Units>  (555) 
nM

>  <pChEMBL Value>  (555) 
5.9

>  <Comment>  (555) 
active

>  <Compound Key>  (555) 
SID103904370

>  <Assay>  (555) 
CHEMBL1963742

>  <Assay Description>  (555) 
PUBCHEM_BIOASSAY: Navigating the Kinome. (Class of assay: other) Panel member name: JAK3

>  <BAO Format>  (555) 
assay format

>  <Target>  (555) 
CHEMBL2148

>  <Target Pref. Name>  (555) 
Tyrosine-protein kinase JAK3

>  <Target Organism>  (555) 
Homo sapiens

>  <Target Type>  (555) 
SINGLE PROTEIN

>  <Document>  (555) 
CHEMBL1201862

>  <Source>  (555) 
PubChem BioAssays

>  <Max Phase>  (555) 
0

>  <#Ro5 Violations>  (555) 
0

>  <Molecular Weight>  (555) 
343.39

>  <Ligand Efficiency BEI>  (555) 
nan

>  <Ligand Efficiency LE>  (555) 
nan

>  <Ligand Efficiency LLE>  (555) 
nan

>  <Ligand Efficiency SEI>  (555) 
nan

>  <ALogP>  (555) 
4.46

>  <Assay Organism>  (555) 
nan

>  <Assay Tissue ChEMBL ID>  (555) 
nan

>  <Assay Tissue Name>  (555) 
nan

>  <Assay Cell Type>  (555) 
nan

>  <Assay Subcellular Fraction>  (555) 
nan

>  <Organism Tax ID>  (555) 
9606

>  <BAO Format ID>  (555) 
BAO_0000019

>  <Published Type>  (555) 
nan

>  <Published Relation>  (555) 
nan

>  <Published Value>  (555) 
nan

>  <Published Units>  (555) 
nan

>  <Canonical Smiles>  (555) 
Nc1n[nH]c2cccc(c3ccc(NC(=O)Nc4ccccc4)cc3)c12

>  <Data Validity Comment>  (555) 
nan

>  <Document Journal>  (555) 
nan

>  <Document Year>  (555) 
nan

>  <SRC ID>  (555) 
7

>  <UO Units>  (555) 
UO_0000065

>  <Potential Duplicate>  (555) 
False

>  <Class>  (555) 
1

$$$$

     RDKit          2D

 19 21  0  0  0  0  0  0  0  0999 V2000
   -3.7500   -9.0933    0.0000 C   0  0  0  0  0  0  0  0  0  0  0  0
   -3.0000   -7.7942    0.0000 O   0  0  0  0  0  0  0  0  0  0  0  0
   -3.7500   -6.4952    0.0000 C   0  0  0  0  0  0  0  0  0  0  0  0
   -5.2500   -6.4952    0.0000 C   0  0  0  0  0  0  0  0  0  0  0  0
   -6.0000   -5.1962    0.0000 C   0  0  0  0  0  0  0  0  0  0  0  0
   -5.2500   -3.8971    0.0000 C   0  0  0  0  0  0  0  0  0  0  0  0
   -3.7500   -3.8971    0.0000 C   0  0  0  0  0  0  0  0  0  0  0  0
   -3.0000   -2.5981    0.0000 N   0  0  0  0  0  0  0  0  0  0  0  0
   -1.5000   -2.5981    0.0000 C   0  0  0  0  0  0  0  0  0  0  0  0
   -0.7500   -3.8971    0.0000 N   0  0  0  0  0  0  0  0  0  0  0  0
    0.7500   -3.8971    0.0000 C   0  0  0  0  0  0  0  0  0  0  0  0
    1.5000   -2.5981    0.0000 N   0  0  0  0  0  0  0  0  0  0  0  0
    0.7500   -1.2990    0.0000 C   0  0  0  0  0  0  0  0  0  0  0  0
    1.5000    0.0000    0.0000 C   0  0  0  0  0  0  0  0  0  0  0  0
    0.7500    1.2990    0.0000 C   0  0  0  0  0  0  0  0  0  0  0  0
   -0.7500    1.2990    0.0000 C   0  0  0  0  0  0  0  0  0  0  0  0
   -1.5000    0.0000    0.0000 C   0  0  0  0  0  0  0  0  0  0  0  0
   -0.7500   -1.2990    0.0000 C   0  0  0  0  0  0  0  0  0  0  0  0
   -3.0000   -5.1962    0.0000 C   0  0  0  0  0  0  0  0  0  0  0  0
  1  2  1  0
  2  3  1  0
  3  4  2  0
  4  5  1  0
  5  6  2  0
  6  7  1  0
  7  8  1  0
  8  9  1  0
  9 10  2  0
 10 11  1  0
 11 12  2  0
 12 13  1  0
 13 14  2  0
 14 15  1  0
 15 16  2  0
 16 17  1  0
 17 18  2  0
  7 19  2  0
 19  3  1  0
 18  9  1  0
 18 13  1  0
M  END
>  <Molecule>  (556) 
CHEMBL117697

>  <Standard Type>  (556) 
Ki

>  <Standard Relation>  (556) 
>

>  <Standard Value>  (556) 
1584.89

>  <Standard Units>  (556) 
nM

>  <pChEMBL Value>  (556) 
nan

>  <Comment>  (556) 
inactive

>  <Compound Key>  (556) 
SID103904646

>  <Assay>  (556) 
CHEMBL1963742

>  <Assay Description>  (556) 
PUBCHEM_BIOASSAY: Navigating the Kinome. (Class of assay: other) Panel member name: JAK3

>  <BAO Format>  (556) 
assay format

>  <Target>  (556) 
CHEMBL2148

>  <Target Pref. Name>  (556) 
Tyrosine-protein kinase JAK3

>  <Target Organism>  (556) 
Homo sapiens

>  <Target Type>  (556) 
SINGLE PROTEIN

>  <Document>  (556) 
CHEMBL1201862

>  <Source>  (556) 
PubChem BioAssays

>  <Max Phase>  (556) 
0

>  <#Ro5 Violations>  (556) 
0

>  <Molecular Weight>  (556) 
251.29

>  <Ligand Efficiency BEI>  (556) 
nan

>  <Ligand Efficiency LE>  (556) 
nan

>  <Ligand Efficiency LLE>  (556) 
nan

>  <Ligand Efficiency SEI>  (556) 
nan

>  <ALogP>  (556) 
3.38

>  <Assay Organism>  (556) 
nan

>  <Assay Tissue ChEMBL ID>  (556) 
nan

>  <Assay Tissue Name>  (556) 
nan

>  <Assay Cell Type>  (556) 
nan

>  <Assay Subcellular Fraction>  (556) 
nan

>  <Organism Tax ID>  (556) 
9606

>  <BAO Format ID>  (556) 
BAO_0000019

>  <Published Type>  (556) 
nan

>  <Published Relation>  (556) 
nan

>  <Published Value>  (556) 
nan

>  <Published Units>  (556) 
nan

>  <Canonical Smiles>  (556) 
COc1cccc(Nc2ncnc3ccccc23)c1

>  <Data Validity Comment>  (556) 
nan

>  <Document Journal>  (556) 
nan

>  <Document Year>  (556) 
nan

>  <SRC ID>  (556) 
7

>  <UO Units>  (556) 
UO_0000065

>  <Potential Duplicate>  (556) 
False

>  <Class>  (556) 
0

$$$$

     RDKit          2D

 19 21  0  0  0  0  0  0  0  0999 V2000
   -5.7221   -1.8037    0.0000 N   0  0  0  0  0  0  0  0  0  0  0  0
   -4.4231   -2.5537    0.0000 C   0  0  0  0  0  0  0  0  0  0  0  0
   -4.4231   -4.0537    0.0000 O   0  0  0  0  0  0  0  0  0  0  0  0
   -3.1240   -1.8037    0.0000 C   0  0  0  0  0  0  0  0  0  0  0  0
   -1.7537   -2.4138    0.0000 C   0  0  0  0  0  0  0  0  0  0  0  0
   -0.7500   -1.2990    0.0000 C   0  0  0  0  0  0  0  0  0  0  0  0
    0.7500   -1.2990    0.0000 C   0  0  0  0  0  0  0  0  0  0  0  0
    1.5000    0.0000    0.0000 C   0  0  0  0  0  0  0  0  0  0  0  0
    0.7500    1.2990    0.0000 N   0  0  0  0  0  0  0  0  0  0  0  0
   -0.7500    1.2990    0.0000 C   0  0  0  0  0  0  0  0  0  0  0  0
   -1.5000    0.0000    0.0000 C   0  0  0  0  0  0  0  0  0  0  0  0
   -2.9672   -0.3119    0.0000 S   0  0  0  0  0  0  0  0  0  0  0  0
    1.5000   -2.5981    0.0000 C   0  0  0  0  0  0  0  0  0  0  0  0
    0.7500   -3.8971    0.0000 C   0  0  0  0  0  0  0  0  0  0  0  0
    1.5000   -5.1962    0.0000 C   0  0  0  0  0  0  0  0  0  0  0  0
    3.0000   -5.1962    0.0000 C   0  0  0  0  0  0  0  0  0  0  0  0
    3.7500   -6.4952    0.0000 F   0  0  0  0  0  0  0  0  0  0  0  0
    3.7500   -3.8971    0.0000 C   0  0  0  0  0  0  0  0  0  0  0  0
    3.0000   -2.5981    0.0000 C   0  0  0  0  0  0  0  0  0  0  0  0
  1  2  1  0
  2  3  2  0
  2  4  1  0
  4  5  2  0
  5  6  1  0
  6  7  2  0
  7  8  1  0
  8  9  2  0
  9 10  1  0
 10 11  2  0
 11 12  1  0
  7 13  1  0
 13 14  2  0
 14 15  1  0
 15 16  2  0
 16 17  1  0
 16 18  1  0
 18 19  2  0
 12  4  1  0
 11  6  1  0
 19 13  1  0
M  END
>  <Molecule>  (557) 
CHEMBL1974310

>  <Standard Type>  (557) 
Ki

>  <Standard Relation>  (557) 
>

>  <Standard Value>  (557) 
1584.89

>  <Standard Units>  (557) 
nM

>  <pChEMBL Value>  (557) 
nan

>  <Comment>  (557) 
inactive

>  <Compound Key>  (557) 
SID103904987

>  <Assay>  (557) 
CHEMBL1963742

>  <Assay Description>  (557) 
PUBCHEM_BIOASSAY: Navigating the Kinome. (Class of assay: other) Panel member name: JAK3

>  <BAO Format>  (557) 
assay format

>  <Target>  (557) 
CHEMBL2148

>  <Target Pref. Name>  (557) 
Tyrosine-protein kinase JAK3

>  <Target Organism>  (557) 
Homo sapiens

>  <Target Type>  (557) 
SINGLE PROTEIN

>  <Document>  (557) 
CHEMBL1201862

>  <Source>  (557) 
PubChem BioAssays

>  <Max Phase>  (557) 
0

>  <#Ro5 Violations>  (557) 
0

>  <Molecular Weight>  (557) 
272.3

>  <Ligand Efficiency BEI>  (557) 
nan

>  <Ligand Efficiency LE>  (557) 
nan

>  <Ligand Efficiency LLE>  (557) 
nan

>  <Ligand Efficiency SEI>  (557) 
nan

>  <ALogP>  (557) 
3.2

>  <Assay Organism>  (557) 
nan

>  <Assay Tissue ChEMBL ID>  (557) 
nan

>  <Assay Tissue Name>  (557) 
nan

>  <Assay Cell Type>  (557) 
nan

>  <Assay Subcellular Fraction>  (557) 
nan

>  <Organism Tax ID>  (557) 
9606

>  <BAO Format ID>  (557) 
BAO_0000019

>  <Published Type>  (557) 
nan

>  <Published Relation>  (557) 
nan

>  <Published Value>  (557) 
nan

>  <Published Units>  (557) 
nan

>  <Canonical Smiles>  (557) 
NC(=O)c1cc2c(cncc2s1)c3ccc(F)cc3

>  <Data Validity Comment>  (557) 
nan

>  <Document Journal>  (557) 
nan

>  <Document Year>  (557) 
nan

>  <SRC ID>  (557) 
7

>  <UO Units>  (557) 
UO_0000065

>  <Potential Duplicate>  (557) 
False

>  <Class>  (557) 
0

$$$$

     RDKit          2D

 13 14  0  0  0  0  0  0  0  0999 V2000
   -1.2990   -7.3573    0.0000 C   0  0  0  0  0  0  0  0  0  0  0  0
   -1.2990   -5.8573    0.0000 C   0  0  0  0  0  0  0  0  0  0  0  0
   -2.5981   -5.1073    0.0000 O   0  0  0  0  0  0  0  0  0  0  0  0
   -0.0000   -5.1073    0.0000 N   0  0  0  0  0  0  0  0  0  0  0  0
   -0.0000   -3.6073    0.0000 C   0  0  0  0  0  0  0  0  0  0  0  0
    1.2135   -2.7256    0.0000 C   0  0  0  0  0  0  0  0  0  0  0  0
    0.7500   -1.2990    0.0000 C   0  0  0  0  0  0  0  0  0  0  0  0
    1.5000    0.0000    0.0000 C   0  0  0  0  0  0  0  0  0  0  0  0
    0.7500    1.2990    0.0000 C   0  0  0  0  0  0  0  0  0  0  0  0
   -0.7500    1.2990    0.0000 C   0  0  0  0  0  0  0  0  0  0  0  0
   -1.5000    0.0000    0.0000 C   0  0  0  0  0  0  0  0  0  0  0  0
   -0.7500   -1.2990    0.0000 N   0  0  0  0  0  0  0  0  0  0  0  0
   -1.2135   -2.7256    0.0000 N   0  0  0  0  0  0  0  0  0  0  0  0
  1  2  1  0
  2  3  2  0
  2  4  1  0
  4  5  1  0
  5  6  1  0
  6  7  2  0
  7  8  1  0
  8  9  2  0
  9 10  1  0
 10 11  2  0
 11 12  1  0
 12 13  1  0
 13  5  2  0
 12  7  1  0
M  END
>  <Molecule>  (558) 
CHEMBL1976872

>  <Standard Type>  (558) 
Ki

>  <Standard Relation>  (558) 
>

>  <Standard Value>  (558) 
15848.93

>  <Standard Units>  (558) 
nM

>  <pChEMBL Value>  (558) 
nan

>  <Comment>  (558) 
inactive

>  <Compound Key>  (558) 
SID103905485

>  <Assay>  (558) 
CHEMBL1963742

>  <Assay Description>  (558) 
PUBCHEM_BIOASSAY: Navigating the Kinome. (Class of assay: other) Panel member name: JAK3

>  <BAO Format>  (558) 
assay format

>  <Target>  (558) 
CHEMBL2148

>  <Target Pref. Name>  (558) 
Tyrosine-protein kinase JAK3

>  <Target Organism>  (558) 
Homo sapiens

>  <Target Type>  (558) 
SINGLE PROTEIN

>  <Document>  (558) 
CHEMBL1201862

>  <Source>  (558) 
PubChem BioAssays

>  <Max Phase>  (558) 
0

>  <#Ro5 Violations>  (558) 
0

>  <Molecular Weight>  (558) 
175.19

>  <Ligand Efficiency BEI>  (558) 
nan

>  <Ligand Efficiency LE>  (558) 
nan

>  <Ligand Efficiency LLE>  (558) 
nan

>  <Ligand Efficiency SEI>  (558) 
nan

>  <ALogP>  (558) 
1.29

>  <Assay Organism>  (558) 
nan

>  <Assay Tissue ChEMBL ID>  (558) 
nan

>  <Assay Tissue Name>  (558) 
nan

>  <Assay Cell Type>  (558) 
nan

>  <Assay Subcellular Fraction>  (558) 
nan

>  <Organism Tax ID>  (558) 
9606

>  <BAO Format ID>  (558) 
BAO_0000019

>  <Published Type>  (558) 
nan

>  <Published Relation>  (558) 
nan

>  <Published Value>  (558) 
nan

>  <Published Units>  (558) 
nan

>  <Canonical Smiles>  (558) 
CC(=O)Nc1cc2ccccn2n1

>  <Data Validity Comment>  (558) 
nan

>  <Document Journal>  (558) 
nan

>  <Document Year>  (558) 
nan

>  <SRC ID>  (558) 
7

>  <UO Units>  (558) 
UO_0000065

>  <Potential Duplicate>  (558) 
False

>  <Class>  (558) 
0

$$$$

     RDKit          2D

 16 18  0  0  0  0  0  0  0  0999 V2000
    3.0000    0.0000    0.0000 N   0  0  0  0  0  0  0  0  0  0  0  0
    1.5000    0.0000    0.0000 C   0  0  0  0  0  0  0  0  0  0  0  0
    0.7500   -1.2990    0.0000 N   0  0  0  0  0  0  0  0  0  0  0  0
   -0.7500   -1.2990    0.0000 C   0  0  0  0  0  0  0  0  0  0  0  0
   -1.5000    0.0000    0.0000 C   0  0  0  0  0  0  0  0  0  0  0  0
   -0.7500    1.2990    0.0000 C   0  0  0  0  0  0  0  0  0  0  0  0
   -1.2135    2.7256    0.0000 C   0  0  0  0  0  0  0  0  0  0  0  0
   -0.0000    3.6073    0.0000 N   0  0  0  0  0  0  0  0  0  0  0  0
    1.2135    2.7256    0.0000 C   0  0  0  0  0  0  0  0  0  0  0  0
    2.6401    3.1891    0.0000 C   0  0  0  0  0  0  0  0  0  0  0  0
    3.7548    2.1855    0.0000 C   0  0  0  0  0  0  0  0  0  0  0  0
    5.1814    2.6490    0.0000 C   0  0  0  0  0  0  0  0  0  0  0  0
    5.4933    4.1162    0.0000 C   0  0  0  0  0  0  0  0  0  0  0  0
    4.3786    5.1199    0.0000 C   0  0  0  0  0  0  0  0  0  0  0  0
    2.9520    4.6564    0.0000 C   0  0  0  0  0  0  0  0  0  0  0  0
    0.7500    1.2990    0.0000 N   0  0  0  0  0  0  0  0  0  0  0  0
  1  2  1  0
  2  3  2  0
  3  4  1  0
  4  5  2  0
  5  6  1  0
  6  7  2  0
  7  8  1  0
  8  9  2  0
  9 10  1  0
 10 11  2  0
 11 12  1  0
 12 13  2  0
 13 14  1  0
 14 15  2  0
  9 16  1  0
 16  2  1  0
 16  6  1  0
 15 10  1  0
M  END
>  <Molecule>  (559) 
CHEMBL1969156

>  <Standard Type>  (559) 
Ki

>  <Standard Relation>  (559) 
>

>  <Standard Value>  (559) 
15848.93

>  <Standard Units>  (559) 
nM

>  <pChEMBL Value>  (559) 
nan

>  <Comment>  (559) 
inactive

>  <Compound Key>  (559) 
SID103905329

>  <Assay>  (559) 
CHEMBL1963742

>  <Assay Description>  (559) 
PUBCHEM_BIOASSAY: Navigating the Kinome. (Class of assay: other) Panel member name: JAK3

>  <BAO Format>  (559) 
assay format

>  <Target>  (559) 
CHEMBL2148

>  <Target Pref. Name>  (559) 
Tyrosine-protein kinase JAK3

>  <Target Organism>  (559) 
Homo sapiens

>  <Target Type>  (559) 
SINGLE PROTEIN

>  <Document>  (559) 
CHEMBL1201862

>  <Source>  (559) 
PubChem BioAssays

>  <Max Phase>  (559) 
0

>  <#Ro5 Violations>  (559) 
0

>  <Molecular Weight>  (559) 
210.24

>  <Ligand Efficiency BEI>  (559) 
nan

>  <Ligand Efficiency LE>  (559) 
nan

>  <Ligand Efficiency LLE>  (559) 
nan

>  <Ligand Efficiency SEI>  (559) 
nan

>  <ALogP>  (559) 
1.98

>  <Assay Organism>  (559) 
nan

>  <Assay Tissue ChEMBL ID>  (559) 
nan

>  <Assay Tissue Name>  (559) 
nan

>  <Assay Cell Type>  (559) 
nan

>  <Assay Subcellular Fraction>  (559) 
nan

>  <Organism Tax ID>  (559) 
9606

>  <BAO Format ID>  (559) 
BAO_0000019

>  <Published Type>  (559) 
nan

>  <Published Relation>  (559) 
nan

>  <Published Value>  (559) 
nan

>  <Published Units>  (559) 
nan

>  <Canonical Smiles>  (559) 
Nc1nccc2cnc(c3ccccc3)n12

>  <Data Validity Comment>  (559) 
nan

>  <Document Journal>  (559) 
nan

>  <Document Year>  (559) 
nan

>  <SRC ID>  (559) 
7

>  <UO Units>  (559) 
UO_0000065

>  <Potential Duplicate>  (559) 
False

>  <Class>  (559) 
0

$$$$

     RDKit          2D

 25 28  0  0  0  0  0  0  0  0999 V2000
   -6.0000   -7.7942    0.0000 Cl  0  0  0  0  0  0  0  0  0  0  0  0
   -5.2500   -6.4952    0.0000 C   0  0  0  0  0  0  0  0  0  0  0  0
   -6.0000   -5.1962    0.0000 C   0  0  0  0  0  0  0  0  0  0  0  0
   -5.2500   -3.8971    0.0000 C   0  0  0  0  0  0  0  0  0  0  0  0
   -3.7500   -3.8971    0.0000 C   0  0  0  0  0  0  0  0  0  0  0  0
   -3.0000   -2.5981    0.0000 N   0  0  0  0  0  0  0  0  0  0  0  0
   -1.5000   -2.5981    0.0000 C   0  0  0  0  0  0  0  0  0  0  0  0
   -0.7500   -3.8971    0.0000 N   0  0  0  0  0  0  0  0  0  0  0  0
    0.7500   -3.8971    0.0000 N   0  0  0  0  0  0  0  0  0  0  0  0
    1.5000   -2.5981    0.0000 C   0  0  0  0  0  0  0  0  0  0  0  0
    3.0000   -2.5981    0.0000 C   0  0  0  0  0  0  0  0  0  0  0  0
    3.7500   -3.8971    0.0000 C   0  0  0  0  0  0  0  0  0  0  0  0
    3.0000   -5.1962    0.0000 C   0  0  0  0  0  0  0  0  0  0  0  0
    3.7500   -6.4952    0.0000 C   0  0  0  0  0  0  0  0  0  0  0  0
    5.2500   -6.4952    0.0000 N   0  0  0  0  0  0  0  0  0  0  0  0
    6.0000   -5.1962    0.0000 C   0  0  0  0  0  0  0  0  0  0  0  0
    5.2500   -3.8971    0.0000 C   0  0  0  0  0  0  0  0  0  0  0  0
    0.7500   -1.2990    0.0000 C   0  0  0  0  0  0  0  0  0  0  0  0
    1.5000    0.0000    0.0000 C   0  0  0  0  0  0  0  0  0  0  0  0
    0.7500    1.2990    0.0000 C   0  0  0  0  0  0  0  0  0  0  0  0
   -0.7500    1.2990    0.0000 C   0  0  0  0  0  0  0  0  0  0  0  0
   -1.5000    0.0000    0.0000 C   0  0  0  0  0  0  0  0  0  0  0  0
   -0.7500   -1.2990    0.0000 C   0  0  0  0  0  0  0  0  0  0  0  0
   -3.0000   -5.1962    0.0000 C   0  0  0  0  0  0  0  0  0  0  0  0
   -3.7500   -6.4952    0.0000 C   0  0  0  0  0  0  0  0  0  0  0  0
  1  2  1  0
  2  3  2  0
  3  4  1  0
  4  5  2  0
  5  6  1  0
  6  7  1  0
  7  8  2  0
  8  9  1  0
  9 10  2  0
 10 11  1  0
 11 12  1  0
 12 13  2  0
 13 14  1  0
 14 15  2  0
 15 16  1  0
 16 17  2  0
 10 18  1  0
 18 19  2  0
 19 20  1  0
 20 21  2  0
 21 22  1  0
 22 23  2  0
  5 24  1  0
 24 25  2  0
 25  2  1  0
 23  7  1  0
 17 12  1  0
 23 18  1  0
M  END
>  <Molecule>  (560) 
CHEMBL101253

>  <Standard Type>  (560) 
Ki

>  <Standard Relation>  (560) 
>

>  <Standard Value>  (560) 
3981.07

>  <Standard Units>  (560) 
nM

>  <pChEMBL Value>  (560) 
nan

>  <Comment>  (560) 
inactive

>  <Compound Key>  (560) 
SID103905548

>  <Assay>  (560) 
CHEMBL1963742

>  <Assay Description>  (560) 
PUBCHEM_BIOASSAY: Navigating the Kinome. (Class of assay: other) Panel member name: JAK3

>  <BAO Format>  (560) 
assay format

>  <Target>  (560) 
CHEMBL2148

>  <Target Pref. Name>  (560) 
Tyrosine-protein kinase JAK3

>  <Target Organism>  (560) 
Homo sapiens

>  <Target Type>  (560) 
SINGLE PROTEIN

>  <Document>  (560) 
CHEMBL1201862

>  <Source>  (560) 
PubChem BioAssays

>  <Max Phase>  (560) 
3

>  <#Ro5 Violations>  (560) 
1

>  <Molecular Weight>  (560) 
346.82

>  <Ligand Efficiency BEI>  (560) 
nan

>  <Ligand Efficiency LE>  (560) 
nan

>  <Ligand Efficiency LLE>  (560) 
nan

>  <Ligand Efficiency SEI>  (560) 
nan

>  <ALogP>  (560) 
5.01

>  <Assay Organism>  (560) 
nan

>  <Assay Tissue ChEMBL ID>  (560) 
nan

>  <Assay Tissue Name>  (560) 
nan

>  <Assay Cell Type>  (560) 
nan

>  <Assay Subcellular Fraction>  (560) 
nan

>  <Organism Tax ID>  (560) 
9606

>  <BAO Format ID>  (560) 
BAO_0000019

>  <Published Type>  (560) 
nan

>  <Published Relation>  (560) 
nan

>  <Published Value>  (560) 
nan

>  <Published Units>  (560) 
nan

>  <Canonical Smiles>  (560) 
Clc1ccc(Nc2nnc(Cc3ccncc3)c4ccccc24)cc1

>  <Data Validity Comment>  (560) 
nan

>  <Document Journal>  (560) 
nan

>  <Document Year>  (560) 
nan

>  <SRC ID>  (560) 
7

>  <UO Units>  (560) 
UO_0000065

>  <Potential Duplicate>  (560) 
False

>  <Class>  (560) 
0

$$$$

     RDKit          2D

 26 29  0  0  0  0  0  0  0  0999 V2000
    3.0000  -10.3923    0.0000 C   0  0  0  0  0  0  0  0  0  0  0  0
    3.7500   -9.0933    0.0000 O   0  0  0  0  0  0  0  0  0  0  0  0
    3.0000   -7.7942    0.0000 C   0  0  0  0  0  0  0  0  0  0  0  0
    1.5000   -7.7942    0.0000 C   0  0  0  0  0  0  0  0  0  0  0  0
    0.7500   -6.4952    0.0000 C   0  0  0  0  0  0  0  0  0  0  0  0
    1.5000   -5.1962    0.0000 C   0  0  0  0  0  0  0  0  0  0  0  0
    3.0000   -5.1962    0.0000 C   0  0  0  0  0  0  0  0  0  0  0  0
    3.7500   -6.4952    0.0000 C   0  0  0  0  0  0  0  0  0  0  0  0
    0.7500   -3.8971    0.0000 C   0  0  0  0  0  0  0  0  0  0  0  0
   -0.7500   -3.8971    0.0000 O   0  0  0  0  0  0  0  0  0  0  0  0
    1.5000   -2.5981    0.0000 N   0  0  0  0  0  0  0  0  0  0  0  0
    0.7500   -1.2990    0.0000 C   0  0  0  0  0  0  0  0  0  0  0  0
    1.5000    0.0000    0.0000 C   0  0  0  0  0  0  0  0  0  0  0  0
    0.7500    1.2990    0.0000 N   0  0  0  0  0  0  0  0  0  0  0  0
   -0.7500    1.2990    0.0000 C   0  0  0  0  0  0  0  0  0  0  0  0
   -1.7537    2.4138    0.0000 N   0  0  0  0  0  0  0  0  0  0  0  0
   -3.1240    1.8037    0.0000 C   0  0  0  0  0  0  0  0  0  0  0  0
   -2.9672    0.3119    0.0000 C   0  0  0  0  0  0  0  0  0  0  0  0
   -4.0819   -0.6918    0.0000 C   0  0  0  0  0  0  0  0  0  0  0  0
   -5.5085   -0.2283    0.0000 C   0  0  0  0  0  0  0  0  0  0  0  0
   -6.6232   -1.2320    0.0000 C   0  0  0  0  0  0  0  0  0  0  0  0
   -6.3114   -2.6992    0.0000 C   0  0  0  0  0  0  0  0  0  0  0  0
   -4.8848   -3.1627    0.0000 C   0  0  0  0  0  0  0  0  0  0  0  0
   -3.7701   -2.1590    0.0000 C   0  0  0  0  0  0  0  0  0  0  0  0
   -1.5000    0.0000    0.0000 C   0  0  0  0  0  0  0  0  0  0  0  0
   -0.7500   -1.2990    0.0000 C   0  0  0  0  0  0  0  0  0  0  0  0
  1  2  1  0
  2  3  1  0
  3  4  2  0
  4  5  1  0
  5  6  2  0
  6  7  1  0
  7  8  2  0
  6  9  1  0
  9 10  2  0
  9 11  1  0
 11 12  1  0
 12 13  2  0
 13 14  1  0
 14 15  2  0
 15 16  1  0
 16 17  1  0
 17 18  2  0
 18 19  1  0
 19 20  2  0
 20 21  1  0
 21 22  2  0
 22 23  1  0
 23 24  2  0
 18 25  1  0
 25 26  2  0
  8  3  1  0
 26 12  1  0
 25 15  1  0
 24 19  1  0
M  END
>  <Molecule>  (561) 
CHEMBL1997764

>  <Standard Type>  (561) 
Ki

>  <Standard Relation>  (561) 
>

>  <Standard Value>  (561) 
1584.89

>  <Standard Units>  (561) 
nM

>  <pChEMBL Value>  (561) 
nan

>  <Comment>  (561) 
inactive

>  <Compound Key>  (561) 
SID103904211

>  <Assay>  (561) 
CHEMBL1963742

>  <Assay Description>  (561) 
PUBCHEM_BIOASSAY: Navigating the Kinome. (Class of assay: other) Panel member name: JAK3

>  <BAO Format>  (561) 
assay format

>  <Target>  (561) 
CHEMBL2148

>  <Target Pref. Name>  (561) 
Tyrosine-protein kinase JAK3

>  <Target Organism>  (561) 
Homo sapiens

>  <Target Type>  (561) 
SINGLE PROTEIN

>  <Document>  (561) 
CHEMBL1201862

>  <Source>  (561) 
PubChem BioAssays

>  <Max Phase>  (561) 
0

>  <#Ro5 Violations>  (561) 
0

>  <Molecular Weight>  (561) 
343.39

>  <Ligand Efficiency BEI>  (561) 
nan

>  <Ligand Efficiency LE>  (561) 
nan

>  <Ligand Efficiency LLE>  (561) 
nan

>  <Ligand Efficiency SEI>  (561) 
nan

>  <ALogP>  (561) 
4.49

>  <Assay Organism>  (561) 
nan

>  <Assay Tissue ChEMBL ID>  (561) 
nan

>  <Assay Tissue Name>  (561) 
nan

>  <Assay Cell Type>  (561) 
nan

>  <Assay Subcellular Fraction>  (561) 
nan

>  <Organism Tax ID>  (561) 
9606

>  <BAO Format ID>  (561) 
BAO_0000019

>  <Published Type>  (561) 
nan

>  <Published Relation>  (561) 
nan

>  <Published Value>  (561) 
nan

>  <Published Units>  (561) 
nan

>  <Canonical Smiles>  (561) 
COc1ccc(cc1)C(=O)Nc2cnc3[nH]cc(c4ccccc4)c3c2

>  <Data Validity Comment>  (561) 
nan

>  <Document Journal>  (561) 
nan

>  <Document Year>  (561) 
nan

>  <SRC ID>  (561) 
7

>  <UO Units>  (561) 
UO_0000065

>  <Potential Duplicate>  (561) 
False

>  <Class>  (561) 
0

$$$$

     RDKit          2D

 27 30  0  0  0  0  0  0  0  0999 V2000
    3.0000    0.0000    0.0000 O   0  0  0  0  0  0  0  0  0  0  0  0
    1.5000    0.0000    0.0000 C   0  0  0  0  0  0  0  0  0  0  0  0
    0.7500   -1.2990    0.0000 C   0  0  0  0  0  0  0  0  0  0  0  0
   -0.7500   -1.2990    0.0000 C   0  0  0  0  0  0  0  0  0  0  0  0
   -1.5000    0.0000    0.0000 C   0  0  0  0  0  0  0  0  0  0  0  0
   -0.7500    1.2990    0.0000 C   0  0  0  0  0  0  0  0  0  0  0  0
    0.7500    1.2990    0.0000 C   0  0  0  0  0  0  0  0  0  0  0  0
   -3.0000    0.0000    0.0000 C   0  0  0  0  0  0  0  0  0  0  0  0
   -3.8817   -1.2135    0.0000 N   0  0  0  0  0  0  0  0  0  0  0  0
   -5.3083   -0.7500    0.0000 N   0  0  0  0  0  0  0  0  0  0  0  0
   -5.3083    0.7500    0.0000 C   0  0  0  0  0  0  0  0  0  0  0  0
   -6.5218    1.6317    0.0000 N   0  0  0  0  0  0  0  0  0  0  0  0
   -7.8921    1.0216    0.0000 C   0  0  0  0  0  0  0  0  0  0  0  0
   -8.0489   -0.4702    0.0000 C   0  0  0  0  0  0  0  0  0  0  0  0
   -9.4192   -1.0803    0.0000 C   0  0  0  0  0  0  0  0  0  0  0  0
  -10.6327   -0.1986    0.0000 C   0  0  0  0  0  0  0  0  0  0  0  0
  -10.4760    1.2931    0.0000 C   0  0  0  0  0  0  0  0  0  0  0  0
  -11.6895    2.1748    0.0000 Cl  0  0  0  0  0  0  0  0  0  0  0  0
   -9.1056    1.9033    0.0000 C   0  0  0  0  0  0  0  0  0  0  0  0
   -3.8817    1.2135    0.0000 C   0  0  0  0  0  0  0  0  0  0  0  0
   -3.4182    2.6401    0.0000 C   0  0  0  0  0  0  0  0  0  0  0  0
   -1.9509    2.9520    0.0000 C   0  0  0  0  0  0  0  0  0  0  0  0
   -1.4874    4.3786    0.0000 C   0  0  0  0  0  0  0  0  0  0  0  0
   -2.4911    5.4933    0.0000 C   0  0  0  0  0  0  0  0  0  0  0  0
   -2.0276    6.9199    0.0000 O   0  0  0  0  0  0  0  0  0  0  0  0
   -3.9583    5.1814    0.0000 C   0  0  0  0  0  0  0  0  0  0  0  0
   -4.4218    3.7548    0.0000 C   0  0  0  0  0  0  0  0  0  0  0  0
  1  2  1  0
  2  3  2  0
  3  4  1  0
  4  5  2  0
  5  6  1  0
  6  7  2  0
  5  8  1  0
  8  9  2  0
  9 10  1  0
 10 11  1  0
 11 12  1  0
 12 13  1  0
 13 14  2  0
 14 15  1  0
 15 16  2  0
 16 17  1  0
 17 18  1  0
 17 19  2  0
 11 20  2  0
 20 21  1  0
 21 22  2  0
 22 23  1  0
 23 24  2  0
 24 25  1  0
 24 26  1  0
 26 27  2  0
  7  2  1  0
 20  8  1  0
 19 13  1  0
 27 21  1  0
M  END
>  <Molecule>  (562) 
CHEMBL1985092

>  <Standard Type>  (562) 
Ki

>  <Standard Relation>  (562) 
>

>  <Standard Value>  (562) 
1584.89

>  <Standard Units>  (562) 
nM

>  <pChEMBL Value>  (562) 
nan

>  <Comment>  (562) 
inactive

>  <Compound Key>  (562) 
SID103905577

>  <Assay>  (562) 
CHEMBL1963742

>  <Assay Description>  (562) 
PUBCHEM_BIOASSAY: Navigating the Kinome. (Class of assay: other) Panel member name: JAK3

>  <BAO Format>  (562) 
assay format

>  <Target>  (562) 
CHEMBL2148

>  <Target Pref. Name>  (562) 
Tyrosine-protein kinase JAK3

>  <Target Organism>  (562) 
Homo sapiens

>  <Target Type>  (562) 
SINGLE PROTEIN

>  <Document>  (562) 
CHEMBL1201862

>  <Source>  (562) 
PubChem BioAssays

>  <Max Phase>  (562) 
0

>  <#Ro5 Violations>  (562) 
1

>  <Molecular Weight>  (562) 
377.83

>  <Ligand Efficiency BEI>  (562) 
nan

>  <Ligand Efficiency LE>  (562) 
nan

>  <Ligand Efficiency LLE>  (562) 
nan

>  <Ligand Efficiency SEI>  (562) 
nan

>  <ALogP>  (562) 
5.55

>  <Assay Organism>  (562) 
nan

>  <Assay Tissue ChEMBL ID>  (562) 
nan

>  <Assay Tissue Name>  (562) 
nan

>  <Assay Cell Type>  (562) 
nan

>  <Assay Subcellular Fraction>  (562) 
nan

>  <Organism Tax ID>  (562) 
9606

>  <BAO Format ID>  (562) 
BAO_0000019

>  <Published Type>  (562) 
nan

>  <Published Relation>  (562) 
nan

>  <Published Value>  (562) 
nan

>  <Published Units>  (562) 
nan

>  <Canonical Smiles>  (562) 
Oc1ccc(cc1)c2n[nH]c(Nc3cccc(Cl)c3)c2c4ccc(O)cc4

>  <Data Validity Comment>  (562) 
nan

>  <Document Journal>  (562) 
nan

>  <Document Year>  (562) 
nan

>  <SRC ID>  (562) 
7

>  <UO Units>  (562) 
UO_0000065

>  <Potential Duplicate>  (562) 
False

>  <Class>  (562) 
0

$$$$

     RDKit          2D

 33 36  0  0  0  0  0  0  0  0999 V2000
   -2.7313    4.8857    0.0000 C   0  0  0  0  0  0  0  0  0  0  0  0
   -2.2892    3.4524    0.0000 N   0  0  0  0  0  0  0  0  0  0  0  0
   -0.8268    3.1186    0.0000 C   0  0  0  0  0  0  0  0  0  0  0  0
    0.1935    4.2182    0.0000 N   0  0  0  0  0  0  0  0  0  0  0  0
    1.6559    3.8844    0.0000 C   0  0  0  0  0  0  0  0  0  0  0  0
    2.0980    2.4510    0.0000 N   0  0  0  0  0  0  0  0  0  0  0  0
    1.0777    1.3515    0.0000 C   0  0  0  0  0  0  0  0  0  0  0  0
    1.7286    0.0000    0.0000 N   0  0  0  0  0  0  0  0  0  0  0  0
    1.0777   -1.3515    0.0000 C   0  0  0  0  0  0  0  0  0  0  0  0
   -0.3846   -1.6852    0.0000 C   0  0  0  0  0  0  0  0  0  0  0  0
   -1.5574   -0.7500    0.0000 C   0  0  0  0  0  0  0  0  0  0  0  0
   -1.5574    0.7500    0.0000 N   0  0  0  0  0  0  0  0  0  0  0  0
   -0.3846    1.6852    0.0000 C   0  0  0  0  0  0  0  0  0  0  0  0
   -2.9088   -1.4008    0.0000 C   0  0  0  0  0  0  0  0  0  0  0  0
   -4.1482   -0.5558    0.0000 C   0  0  0  0  0  0  0  0  0  0  0  0
   -5.4997   -1.2067    0.0000 C   0  0  0  0  0  0  0  0  0  0  0  0
   -5.6118   -2.7025    0.0000 C   0  0  0  0  0  0  0  0  0  0  0  0
   -6.9632   -3.3533    0.0000 N   0  0  0  0  0  0  0  0  0  0  0  0
   -8.2026   -2.5083    0.0000 C   0  0  0  0  0  0  0  0  0  0  0  0
   -8.0905   -1.0125    0.0000 O   0  0  0  0  0  0  0  0  0  0  0  0
   -9.5540   -3.1591    0.0000 N   0  0  0  0  0  0  0  0  0  0  0  0
  -10.7934   -2.3142    0.0000 C   0  0  0  0  0  0  0  0  0  0  0  0
  -10.6813   -0.8184    0.0000 C   0  0  0  0  0  0  0  0  0  0  0  0
  -11.9206    0.0266    0.0000 C   0  0  0  0  0  0  0  0  0  0  0  0
  -13.2721   -0.6242    0.0000 C   0  0  0  0  0  0  0  0  0  0  0  0
  -13.3842   -2.1200    0.0000 C   0  0  0  0  0  0  0  0  0  0  0  0
  -12.1448   -2.9650    0.0000 C   0  0  0  0  0  0  0  0  0  0  0  0
  -14.7356   -2.7708    0.0000 C   0  0  0  0  0  0  0  0  0  0  0  0
  -16.0871   -3.4217    0.0000 F   0  0  0  0  0  0  0  0  0  0  0  0
  -15.3865   -1.4194    0.0000 F   0  0  0  0  0  0  0  0  0  0  0  0
  -14.0848   -4.1223    0.0000 F   0  0  0  0  0  0  0  0  0  0  0  0
   -4.3724   -3.5475    0.0000 C   0  0  0  0  0  0  0  0  0  0  0  0
   -3.0209   -2.8966    0.0000 C   0  0  0  0  0  0  0  0  0  0  0  0
  1  2  1  0
  2  3  1  0
  3  4  2  0
  4  5  1  0
  5  6  2  0
  6  7  1  0
  7  8  1  0
  8  9  1  0
  9 10  1  0
 10 11  1  0
 11 12  2  0
 12 13  1  0
 11 14  1  0
 14 15  2  0
 15 16  1  0
 16 17  2  0
 17 18  1  0
 18 19  1  0
 19 20  2  0
 19 21  1  0
 21 22  1  0
 22 23  2  0
 23 24  1  0
 24 25  2  0
 25 26  1  0
 26 27  2  0
 26 28  1  0
 28 29  1  0
 28 30  1  0
 28 31  1  0
 17 32  1  0
 32 33  2  0
 13  3  1  0
 13  7  2  0
 33 14  1  0
 27 22  1  0
M  END
>  <Molecule>  (563) 
CHEMBL1981410

>  <Standard Type>  (563) 
Ki

>  <Standard Relation>  (563) 
>

>  <Standard Value>  (563) 
1584.89

>  <Standard Units>  (563) 
nM

>  <pChEMBL Value>  (563) 
nan

>  <Comment>  (563) 
inactive

>  <Compound Key>  (563) 
SID103904744

>  <Assay>  (563) 
CHEMBL1963742

>  <Assay Description>  (563) 
PUBCHEM_BIOASSAY: Navigating the Kinome. (Class of assay: other) Panel member name: JAK3

>  <BAO Format>  (563) 
assay format

>  <Target>  (563) 
CHEMBL2148

>  <Target Pref. Name>  (563) 
Tyrosine-protein kinase JAK3

>  <Target Organism>  (563) 
Homo sapiens

>  <Target Type>  (563) 
SINGLE PROTEIN

>  <Document>  (563) 
CHEMBL1201862

>  <Source>  (563) 
PubChem BioAssays

>  <Max Phase>  (563) 
0

>  <#Ro5 Violations>  (563) 
1

>  <Molecular Weight>  (563) 
455.44

>  <Ligand Efficiency BEI>  (563) 
nan

>  <Ligand Efficiency LE>  (563) 
nan

>  <Ligand Efficiency LLE>  (563) 
nan

>  <Ligand Efficiency SEI>  (563) 
nan

>  <ALogP>  (563) 
5.12

>  <Assay Organism>  (563) 
nan

>  <Assay Tissue ChEMBL ID>  (563) 
nan

>  <Assay Tissue Name>  (563) 
nan

>  <Assay Cell Type>  (563) 
nan

>  <Assay Subcellular Fraction>  (563) 
nan

>  <Organism Tax ID>  (563) 
9606

>  <BAO Format ID>  (563) 
BAO_0000019

>  <Published Type>  (563) 
nan

>  <Published Relation>  (563) 
nan

>  <Published Value>  (563) 
nan

>  <Published Units>  (563) 
nan

>  <Canonical Smiles>  (563) 
CNc1ncnc2NCCC(=Nc12)c3ccc(NC(=O)Nc4cccc(c4)C(F)(F)F)cc3

>  <Data Validity Comment>  (563) 
nan

>  <Document Journal>  (563) 
nan

>  <Document Year>  (563) 
nan

>  <SRC ID>  (563) 
7

>  <UO Units>  (563) 
UO_0000065

>  <Potential Duplicate>  (563) 
False

>  <Class>  (563) 
0

$$$$

     RDKit          2D

 52 54  0  0  0  0  0  0  0  0999 V2000
    3.7500   -1.2990    0.0000 C   0  0  0  0  0  0  0  0  0  0  0  0
    3.0000    0.0000    0.0000 C   0  0  0  0  0  0  0  0  0  0  0  0
    3.7500    1.2990    0.0000 N   0  0  0  0  0  0  0  0  0  0  0  0
    5.2500    1.2990    0.0000 N   0  0  0  0  0  0  0  0  0  0  0  0
    6.0000    2.5981    0.0000 C   0  0  0  0  0  0  0  0  0  0  0  0
    5.2500    3.8971    0.0000 N   0  0  0  0  0  0  0  0  0  0  0  0
    7.5000    2.5981    0.0000 N   0  0  0  0  0  0  0  0  0  0  0  0
    1.5000    0.0000    0.0000 C   0  0  0  0  0  0  0  0  0  0  0  0
    0.7500   -1.2990    0.0000 C   0  0  0  0  0  0  0  0  0  0  0  0
   -0.7500   -1.2990    0.0000 C   0  0  0  0  0  0  0  0  0  0  0  0
   -1.5000   -2.5981    0.0000 N   0  0  0  0  0  0  0  0  0  0  0  0
   -3.0000   -2.5981    0.0000 C   0  0  0  0  0  0  0  0  0  0  0  0
   -3.7500   -1.2990    0.0000 O   0  0  0  0  0  0  0  0  0  0  0  0
   -3.7500   -3.8971    0.0000 C   0  0  0  0  0  0  0  0  0  0  0  0
   -5.2500   -3.8971    0.0000 C   0  0  0  0  0  0  0  0  0  0  0  0
   -6.0000   -5.1962    0.0000 C   0  0  0  0  0  0  0  0  0  0  0  0
   -5.2500   -6.4952    0.0000 C   0  0  0  0  0  0  0  0  0  0  0  0
   -3.7500   -6.4952    0.0000 C   0  0  0  0  0  0  0  0  0  0  0  0
   -3.0000   -5.1962    0.0000 C   0  0  0  0  0  0  0  0  0  0  0  0
   -3.0000   -7.7942    0.0000 C   0  0  0  0  0  0  0  0  0  0  0  0
   -1.5000   -7.7942    0.0000 O   0  0  0  0  0  0  0  0  0  0  0  0
   -3.7500   -9.0933    0.0000 N   0  0  0  0  0  0  0  0  0  0  0  0
   -3.0000  -10.3923    0.0000 C   0  0  0  0  0  0  0  0  0  0  0  0
   -3.7500  -11.6913    0.0000 C   0  0  0  0  0  0  0  0  0  0  0  0
   -3.0000  -12.9904    0.0000 C   0  0  0  0  0  0  0  0  0  0  0  0
   -1.5000  -12.9904    0.0000 C   0  0  0  0  0  0  0  0  0  0  0  0
   -0.7500  -11.6913    0.0000 C   0  0  0  0  0  0  0  0  0  0  0  0
   -1.5000  -10.3923    0.0000 C   0  0  0  0  0  0  0  0  0  0  0  0
    0.7500  -11.6913    0.0000 C   0  0  0  0  0  0  0  0  0  0  0  0
    1.5000  -10.3923    0.0000 N   0  0  0  0  0  0  0  0  0  0  0  0
    3.0000  -10.3923    0.0000 N   0  0  0  0  0  0  0  0  0  0  0  0
    3.7500   -9.0933    0.0000 C   0  0  0  0  0  0  0  0  0  0  0  0
    3.0000   -7.7942    0.0000 N   0  0  0  0  0  0  0  0  0  0  0  0
    5.2500   -9.0933    0.0000 N   0  0  0  0  0  0  0  0  0  0  0  0
    1.5000  -12.9904    0.0000 C   0  0  0  0  0  0  0  0  0  0  0  0
   -3.7500  -14.2894    0.0000 C   0  0  0  0  0  0  0  0  0  0  0  0
   -3.0000  -15.5885    0.0000 N   0  0  0  0  0  0  0  0  0  0  0  0
   -3.7500  -16.8875    0.0000 N   0  0  0  0  0  0  0  0  0  0  0  0
   -3.0000  -18.1865    0.0000 C   0  0  0  0  0  0  0  0  0  0  0  0
   -1.5000  -18.1865    0.0000 N   0  0  0  0  0  0  0  0  0  0  0  0
   -3.7500  -19.4856    0.0000 N   0  0  0  0  0  0  0  0  0  0  0  0
   -5.2500  -14.2894    0.0000 C   0  0  0  0  0  0  0  0  0  0  0  0
   -1.5000    0.0000    0.0000 C   0  0  0  0  0  0  0  0  0  0  0  0
   -0.7500    1.2990    0.0000 C   0  0  0  0  0  0  0  0  0  0  0  0
    0.7500    1.2990    0.0000 C   0  0  0  0  0  0  0  0  0  0  0  0
   -1.5000    2.5981    0.0000 C   0  0  0  0  0  0  0  0  0  0  0  0
   -3.0000    2.5981    0.0000 N   0  0  0  0  0  0  0  0  0  0  0  0
   -3.7500    3.8971    0.0000 N   0  0  0  0  0  0  0  0  0  0  0  0
   -5.2500    3.8971    0.0000 C   0  0  0  0  0  0  0  0  0  0  0  0
   -6.0000    2.5981    0.0000 N   0  0  0  0  0  0  0  0  0  0  0  0
   -6.0000    5.1962    0.0000 N   0  0  0  0  0  0  0  0  0  0  0  0
   -0.7500    3.8971    0.0000 C   0  0  0  0  0  0  0  0  0  0  0  0
  1  2  1  0
  2  3  2  3
  3  4  1  0
  4  5  1  0
  5  6  2  0
  5  7  1  0
  2  8  1  0
  8  9  2  0
  9 10  1  0
 10 11  1  0
 11 12  1  0
 12 13  2  0
 12 14  1  0
 14 15  2  0
 15 16  1  0
 16 17  2  0
 17 18  1  0
 18 19  2  0
 18 20  1  0
 20 21  2  0
 20 22  1  0
 22 23  1  0
 23 24  2  0
 24 25  1  0
 25 26  2  0
 26 27  1  0
 27 28  2  0
 27 29  1  0
 29 30  2  3
 30 31  1  0
 31 32  1  0
 32 33  2  0
 32 34  1  0
 29 35  1  0
 25 36  1  0
 36 37  2  3
 37 38  1  0
 38 39  1  0
 39 40  2  0
 39 41  1  0
 36 42  1  0
 10 43  2  0
 43 44  1  0
 44 45  2  0
 44 46  1  0
 46 47  2  3
 47 48  1  0
 48 49  1  0
 49 50  2  0
 49 51  1  0
 46 52  1  0
 45  8  1  0
 19 14  1  0
 28 23  1  0
M  END
>  <Molecule>  (564) 
CHEMBL2000685

>  <Standard Type>  (564) 
Ki

>  <Standard Relation>  (564) 
=

>  <Standard Value>  (564) 
199.53

>  <Standard Units>  (564) 
nM

>  <pChEMBL Value>  (564) 
6.7

>  <Comment>  (564) 
active

>  <Compound Key>  (564) 
SID103904743

>  <Assay>  (564) 
CHEMBL1963742

>  <Assay Description>  (564) 
PUBCHEM_BIOASSAY: Navigating the Kinome. (Class of assay: other) Panel member name: JAK3

>  <BAO Format>  (564) 
assay format

>  <Target>  (564) 
CHEMBL2148

>  <Target Pref. Name>  (564) 
Tyrosine-protein kinase JAK3

>  <Target Organism>  (564) 
Homo sapiens

>  <Target Type>  (564) 
SINGLE PROTEIN

>  <Document>  (564) 
CHEMBL1201862

>  <Source>  (564) 
PubChem BioAssays

>  <Max Phase>  (564) 
0

>  <#Ro5 Violations>  (564) 
2

>  <Molecular Weight>  (564) 
708.8

>  <Ligand Efficiency BEI>  (564) 
nan

>  <Ligand Efficiency LE>  (564) 
nan

>  <Ligand Efficiency LLE>  (564) 
nan

>  <Ligand Efficiency SEI>  (564) 
nan

>  <ALogP>  (564) 
1.02

>  <Assay Organism>  (564) 
nan

>  <Assay Tissue ChEMBL ID>  (564) 
nan

>  <Assay Tissue Name>  (564) 
nan

>  <Assay Cell Type>  (564) 
nan

>  <Assay Subcellular Fraction>  (564) 
nan

>  <Organism Tax ID>  (564) 
9606

>  <BAO Format ID>  (564) 
BAO_0000019

>  <Published Type>  (564) 
nan

>  <Published Relation>  (564) 
nan

>  <Published Value>  (564) 
nan

>  <Published Units>  (564) 
nan

>  <Canonical Smiles>  (564) 
CC(=NNC(=N)N)c1cc(NC(=O)c2cccc(c2)C(=O)Nc3cc(cc(c3)C(=NNC(=N)N)C)C(=NNC(=N)N)C)cc(c1)C(=NNC(=N)N)C

>  <Data Validity Comment>  (564) 
nan

>  <Document Journal>  (564) 
nan

>  <Document Year>  (564) 
nan

>  <SRC ID>  (564) 
7

>  <UO Units>  (564) 
UO_0000065

>  <Potential Duplicate>  (564) 
False

>  <Class>  (564) 
1

$$$$

     RDKit          2D

 27 30  0  0  0  0  0  0  0  0999 V2000
  -14.5438   -2.9592    0.0000 C   0  0  0  0  0  0  0  0  0  0  0  0
  -13.1172   -2.4957    0.0000 C   0  0  0  0  0  0  0  0  0  0  0  0
  -12.8053   -1.0285    0.0000 C   0  0  0  0  0  0  0  0  0  0  0  0
  -11.3787   -0.5649    0.0000 C   0  0  0  0  0  0  0  0  0  0  0  0
  -10.2640   -1.5686    0.0000 C   0  0  0  0  0  0  0  0  0  0  0  0
  -10.5759   -3.0359    0.0000 C   0  0  0  0  0  0  0  0  0  0  0  0
   -9.4612   -4.0396    0.0000 N   0  0  0  0  0  0  0  0  0  0  0  0
   -8.0346   -3.5760    0.0000 C   0  0  0  0  0  0  0  0  0  0  0  0
   -7.7227   -2.1088    0.0000 O   0  0  0  0  0  0  0  0  0  0  0  0
   -6.9199   -4.5797    0.0000 N   0  0  0  0  0  0  0  0  0  0  0  0
   -5.4933   -4.1162    0.0000 C   0  0  0  0  0  0  0  0  0  0  0  0
   -4.3786   -5.1199    0.0000 C   0  0  0  0  0  0  0  0  0  0  0  0
   -2.9520   -4.6564    0.0000 C   0  0  0  0  0  0  0  0  0  0  0  0
   -2.6401   -3.1891    0.0000 C   0  0  0  0  0  0  0  0  0  0  0  0
   -3.7548   -2.1855    0.0000 C   0  0  0  0  0  0  0  0  0  0  0  0
   -5.1814   -2.6490    0.0000 C   0  0  0  0  0  0  0  0  0  0  0  0
   -1.2135   -2.7256    0.0000 C   0  0  0  0  0  0  0  0  0  0  0  0
    0.0000   -3.6073    0.0000 N   0  0  0  0  0  0  0  0  0  0  0  0
    1.2135   -2.7256    0.0000 O   0  0  0  0  0  0  0  0  0  0  0  0
    0.7500   -1.2990    0.0000 C   0  0  0  0  0  0  0  0  0  0  0  0
    1.5000    0.0000    0.0000 N   0  0  0  0  0  0  0  0  0  0  0  0
    0.7500    1.2990    0.0000 C   0  0  0  0  0  0  0  0  0  0  0  0
   -0.7500    1.2990    0.0000 N   0  0  0  0  0  0  0  0  0  0  0  0
   -1.5000    0.0000    0.0000 C   0  0  0  0  0  0  0  0  0  0  0  0
   -3.0000    0.0000    0.0000 N   0  0  0  0  0  0  0  0  0  0  0  0
   -0.7500   -1.2990    0.0000 C   0  0  0  0  0  0  0  0  0  0  0  0
  -12.0025   -3.4994    0.0000 C   0  0  0  0  0  0  0  0  0  0  0  0
  1  2  1  0
  2  3  2  0
  3  4  1  0
  4  5  2  0
  5  6  1  0
  6  7  1  0
  7  8  1  0
  8  9  2  0
  8 10  1  0
 10 11  1  0
 11 12  2  0
 12 13  1  0
 13 14  2  0
 14 15  1  0
 15 16  2  0
 14 17  1  0
 17 18  2  0
 18 19  1  0
 19 20  1  0
 20 21  2  0
 21 22  1  0
 22 23  2  0
 23 24  1  0
 24 25  1  0
 24 26  2  0
  6 27  2  0
 27  2  1  0
 16 11  1  0
 26 17  1  0
 26 20  1  0
M  END
>  <Molecule>  (565) 
CHEMBL211378

>  <Standard Type>  (565) 
Ki

>  <Standard Relation>  (565) 
>

>  <Standard Value>  (565) 
1584.89

>  <Standard Units>  (565) 
nM

>  <pChEMBL Value>  (565) 
nan

>  <Comment>  (565) 
inactive

>  <Compound Key>  (565) 
SID103904365

>  <Assay>  (565) 
CHEMBL1963742

>  <Assay Description>  (565) 
PUBCHEM_BIOASSAY: Navigating the Kinome. (Class of assay: other) Panel member name: JAK3

>  <BAO Format>  (565) 
assay format

>  <Target>  (565) 
CHEMBL2148

>  <Target Pref. Name>  (565) 
Tyrosine-protein kinase JAK3

>  <Target Organism>  (565) 
Homo sapiens

>  <Target Type>  (565) 
SINGLE PROTEIN

>  <Document>  (565) 
CHEMBL1201862

>  <Source>  (565) 
PubChem BioAssays

>  <Max Phase>  (565) 
0

>  <#Ro5 Violations>  (565) 
0

>  <Molecular Weight>  (565) 
360.38

>  <Ligand Efficiency BEI>  (565) 
nan

>  <Ligand Efficiency LE>  (565) 
nan

>  <Ligand Efficiency LLE>  (565) 
nan

>  <Ligand Efficiency SEI>  (565) 
nan

>  <ALogP>  (565) 
3.82

>  <Assay Organism>  (565) 
nan

>  <Assay Tissue ChEMBL ID>  (565) 
nan

>  <Assay Tissue Name>  (565) 
nan

>  <Assay Cell Type>  (565) 
nan

>  <Assay Subcellular Fraction>  (565) 
nan

>  <Organism Tax ID>  (565) 
9606

>  <BAO Format ID>  (565) 
BAO_0000019

>  <Published Type>  (565) 
nan

>  <Published Relation>  (565) 
nan

>  <Published Value>  (565) 
nan

>  <Published Units>  (565) 
nan

>  <Canonical Smiles>  (565) 
Cc1cccc(NC(=O)Nc2ccc(cc2)c3noc4ncnc(N)c34)c1

>  <Data Validity Comment>  (565) 
nan

>  <Document Journal>  (565) 
nan

>  <Document Year>  (565) 
nan

>  <SRC ID>  (565) 
7

>  <UO Units>  (565) 
UO_0000065

>  <Potential Duplicate>  (565) 
False

>  <Class>  (565) 
0

$$$$

     RDKit          2D

 27 30  0  0  0  0  0  0  0  0999 V2000
  -12.3143   -4.9666    0.0000 C   0  0  0  0  0  0  0  0  0  0  0  0
  -12.0025   -3.4994    0.0000 C   0  0  0  0  0  0  0  0  0  0  0  0
  -13.1172   -2.4957    0.0000 C   0  0  0  0  0  0  0  0  0  0  0  0
  -12.8053   -1.0285    0.0000 C   0  0  0  0  0  0  0  0  0  0  0  0
  -11.3787   -0.5649    0.0000 C   0  0  0  0  0  0  0  0  0  0  0  0
  -10.2640   -1.5686    0.0000 C   0  0  0  0  0  0  0  0  0  0  0  0
  -10.5759   -3.0359    0.0000 C   0  0  0  0  0  0  0  0  0  0  0  0
   -9.4612   -4.0396    0.0000 N   0  0  0  0  0  0  0  0  0  0  0  0
   -8.0346   -3.5760    0.0000 C   0  0  0  0  0  0  0  0  0  0  0  0
   -7.7227   -2.1088    0.0000 O   0  0  0  0  0  0  0  0  0  0  0  0
   -6.9199   -4.5797    0.0000 N   0  0  0  0  0  0  0  0  0  0  0  0
   -5.4933   -4.1162    0.0000 C   0  0  0  0  0  0  0  0  0  0  0  0
   -4.3786   -5.1199    0.0000 C   0  0  0  0  0  0  0  0  0  0  0  0
   -2.9520   -4.6564    0.0000 C   0  0  0  0  0  0  0  0  0  0  0  0
   -2.6401   -3.1891    0.0000 C   0  0  0  0  0  0  0  0  0  0  0  0
   -3.7548   -2.1855    0.0000 C   0  0  0  0  0  0  0  0  0  0  0  0
   -5.1814   -2.6490    0.0000 C   0  0  0  0  0  0  0  0  0  0  0  0
   -1.2135   -2.7256    0.0000 C   0  0  0  0  0  0  0  0  0  0  0  0
    0.0000   -3.6073    0.0000 C   0  0  0  0  0  0  0  0  0  0  0  0
    1.2135   -2.7256    0.0000 O   0  0  0  0  0  0  0  0  0  0  0  0
    0.7500   -1.2990    0.0000 C   0  0  0  0  0  0  0  0  0  0  0  0
    1.5000    0.0000    0.0000 N   0  0  0  0  0  0  0  0  0  0  0  0
    0.7500    1.2990    0.0000 C   0  0  0  0  0  0  0  0  0  0  0  0
   -0.7500    1.2990    0.0000 N   0  0  0  0  0  0  0  0  0  0  0  0
   -1.5000    0.0000    0.0000 C   0  0  0  0  0  0  0  0  0  0  0  0
   -3.0000    0.0000    0.0000 N   0  0  0  0  0  0  0  0  0  0  0  0
   -0.7500   -1.2990    0.0000 C   0  0  0  0  0  0  0  0  0  0  0  0
  1  2  1  0
  2  3  2  0
  3  4  1  0
  4  5  2  0
  5  6  1  0
  6  7  2  0
  7  8  1  0
  8  9  1  0
  9 10  2  0
  9 11  1  0
 11 12  1  0
 12 13  2  0
 13 14  1  0
 14 15  2  0
 15 16  1  0
 16 17  2  0
 15 18  1  0
 18 19  2  0
 19 20  1  0
 20 21  1  0
 21 22  2  0
 22 23  1  0
 23 24  2  0
 24 25  1  0
 25 26  1  0
 25 27  2  0
  7  2  1  0
 17 12  1  0
 27 18  1  0
 27 21  1  0
M  END
>  <Molecule>  (566) 
CHEMBL1984586

>  <Standard Type>  (566) 
Ki

>  <Standard Relation>  (566) 
>

>  <Standard Value>  (566) 
1584.89

>  <Standard Units>  (566) 
nM

>  <pChEMBL Value>  (566) 
nan

>  <Comment>  (566) 
inactive

>  <Compound Key>  (566) 
SID103904368

>  <Assay>  (566) 
CHEMBL1963742

>  <Assay Description>  (566) 
PUBCHEM_BIOASSAY: Navigating the Kinome. (Class of assay: other) Panel member name: JAK3

>  <BAO Format>  (566) 
assay format

>  <Target>  (566) 
CHEMBL2148

>  <Target Pref. Name>  (566) 
Tyrosine-protein kinase JAK3

>  <Target Organism>  (566) 
Homo sapiens

>  <Target Type>  (566) 
SINGLE PROTEIN

>  <Document>  (566) 
CHEMBL1201862

>  <Source>  (566) 
PubChem BioAssays

>  <Max Phase>  (566) 
0

>  <#Ro5 Violations>  (566) 
0

>  <Molecular Weight>  (566) 
359.39

>  <Ligand Efficiency BEI>  (566) 
nan

>  <Ligand Efficiency LE>  (566) 
nan

>  <Ligand Efficiency LLE>  (566) 
nan

>  <Ligand Efficiency SEI>  (566) 
nan

>  <ALogP>  (566) 
4.42

>  <Assay Organism>  (566) 
nan

>  <Assay Tissue ChEMBL ID>  (566) 
nan

>  <Assay Tissue Name>  (566) 
nan

>  <Assay Cell Type>  (566) 
nan

>  <Assay Subcellular Fraction>  (566) 
nan

>  <Organism Tax ID>  (566) 
9606

>  <BAO Format ID>  (566) 
BAO_0000019

>  <Published Type>  (566) 
nan

>  <Published Relation>  (566) 
nan

>  <Published Value>  (566) 
nan

>  <Published Units>  (566) 
nan

>  <Canonical Smiles>  (566) 
Cc1ccccc1NC(=O)Nc2ccc(cc2)c3coc4ncnc(N)c34

>  <Data Validity Comment>  (566) 
nan

>  <Document Journal>  (566) 
nan

>  <Document Year>  (566) 
nan

>  <SRC ID>  (566) 
7

>  <UO Units>  (566) 
UO_0000065

>  <Potential Duplicate>  (566) 
False

>  <Class>  (566) 
0

$$$$

     RDKit          2D

 25 28  0  0  0  0  0  0  0  0999 V2000
   -6.2961   -1.6453    0.0000 Cl  0  0  0  0  0  0  0  0  0  0  0  0
   -5.1814   -2.6490    0.0000 C   0  0  0  0  0  0  0  0  0  0  0  0
   -3.7548   -2.1855    0.0000 C   0  0  0  0  0  0  0  0  0  0  0  0
   -2.6401   -3.1891    0.0000 C   0  0  0  0  0  0  0  0  0  0  0  0
   -2.9520   -4.6564    0.0000 C   0  0  0  0  0  0  0  0  0  0  0  0
   -4.3786   -5.1199    0.0000 C   0  0  0  0  0  0  0  0  0  0  0  0
   -4.6904   -6.5871    0.0000 N   0  0  0  0  0  0  0  0  0  0  0  0
   -6.1170   -7.0506    0.0000 C   0  0  0  0  0  0  0  0  0  0  0  0
   -7.2317   -6.0469    0.0000 O   0  0  0  0  0  0  0  0  0  0  0  0
   -6.4289   -8.5179    0.0000 C   0  0  0  0  0  0  0  0  0  0  0  0
   -7.8555   -8.9814    0.0000 C   0  0  0  0  0  0  0  0  0  0  0  0
   -8.1673  -10.4486    0.0000 C   0  0  0  0  0  0  0  0  0  0  0  0
   -7.0526  -11.4523    0.0000 C   0  0  0  0  0  0  0  0  0  0  0  0
   -5.6260  -10.9888    0.0000 C   0  0  0  0  0  0  0  0  0  0  0  0
   -5.3142   -9.5216    0.0000 C   0  0  0  0  0  0  0  0  0  0  0  0
   -5.4933   -4.1162    0.0000 N   0  0  0  0  0  0  0  0  0  0  0  0
   -1.2135   -2.7256    0.0000 C   0  0  0  0  0  0  0  0  0  0  0  0
    0.0000   -3.6073    0.0000 C   0  0  0  0  0  0  0  0  0  0  0  0
    1.2135   -2.7256    0.0000 N   0  0  0  0  0  0  0  0  0  0  0  0
    0.7500   -1.2990    0.0000 C   0  0  0  0  0  0  0  0  0  0  0  0
    1.5000    0.0000    0.0000 N   0  0  0  0  0  0  0  0  0  0  0  0
    0.7500    1.2990    0.0000 C   0  0  0  0  0  0  0  0  0  0  0  0
   -0.7500    1.2990    0.0000 C   0  0  0  0  0  0  0  0  0  0  0  0
   -1.5000    0.0000    0.0000 C   0  0  0  0  0  0  0  0  0  0  0  0
   -0.7500   -1.2990    0.0000 C   0  0  0  0  0  0  0  0  0  0  0  0
  1  2  1  0
  2  3  2  0
  3  4  1  0
  4  5  2  0
  5  6  1  0
  6  7  1  0
  7  8  1  0
  8  9  2  0
  8 10  1  0
 10 11  2  0
 11 12  1  0
 12 13  2  0
 13 14  1  0
 14 15  2  0
  6 16  2  0
  4 17  1  0
 17 18  2  0
 18 19  1  0
 19 20  1  0
 20 21  2  0
 21 22  1  0
 22 23  2  0
 23 24  1  0
 24 25  2  0
 16  2  1  0
 15 10  1  0
 25 17  1  0
 25 20  1  0
M  END
>  <Molecule>  (567) 
CHEMBL1993413

>  <Standard Type>  (567) 
Ki

>  <Standard Relation>  (567) 
>

>  <Standard Value>  (567) 
5011.87

>  <Standard Units>  (567) 
nM

>  <pChEMBL Value>  (567) 
nan

>  <Comment>  (567) 
inactive

>  <Compound Key>  (567) 
SID103904263

>  <Assay>  (567) 
CHEMBL1963742

>  <Assay Description>  (567) 
PUBCHEM_BIOASSAY: Navigating the Kinome. (Class of assay: other) Panel member name: JAK3

>  <BAO Format>  (567) 
assay format

>  <Target>  (567) 
CHEMBL2148

>  <Target Pref. Name>  (567) 
Tyrosine-protein kinase JAK3

>  <Target Organism>  (567) 
Homo sapiens

>  <Target Type>  (567) 
SINGLE PROTEIN

>  <Document>  (567) 
CHEMBL1201862

>  <Source>  (567) 
PubChem BioAssays

>  <Max Phase>  (567) 
0

>  <#Ro5 Violations>  (567) 
0

>  <Molecular Weight>  (567) 
348.79

>  <Ligand Efficiency BEI>  (567) 
nan

>  <Ligand Efficiency LE>  (567) 
nan

>  <Ligand Efficiency LLE>  (567) 
nan

>  <Ligand Efficiency SEI>  (567) 
nan

>  <ALogP>  (567) 
4.53

>  <Assay Organism>  (567) 
nan

>  <Assay Tissue ChEMBL ID>  (567) 
nan

>  <Assay Tissue Name>  (567) 
nan

>  <Assay Cell Type>  (567) 
nan

>  <Assay Subcellular Fraction>  (567) 
nan

>  <Organism Tax ID>  (567) 
9606

>  <BAO Format ID>  (567) 
BAO_0000019

>  <Published Type>  (567) 
nan

>  <Published Relation>  (567) 
nan

>  <Published Value>  (567) 
nan

>  <Published Units>  (567) 
nan

>  <Canonical Smiles>  (567) 
Clc1cc(cc(NC(=O)c2ccccc2)n1)c3c[nH]c4ncccc34

>  <Data Validity Comment>  (567) 
nan

>  <Document Journal>  (567) 
nan

>  <Document Year>  (567) 
nan

>  <SRC ID>  (567) 
7

>  <UO Units>  (567) 
UO_0000065

>  <Potential Duplicate>  (567) 
False

>  <Class>  (567) 
0

$$$$

     RDKit          2D

 28 32  0  0  0  0  0  0  0  0999 V2000
   -1.2416  -15.9243    0.0000 O   0  0  0  0  0  0  0  0  0  0  0  0
   -2.3563  -14.9206    0.0000 C   0  0  0  0  0  0  0  0  0  0  0  0
   -2.0444  -13.4534    0.0000 C   0  0  0  0  0  0  0  0  0  0  0  0
   -3.1591  -12.4497    0.0000 N   0  0  0  0  0  0  0  0  0  0  0  0
   -3.0023  -10.9579    0.0000 C   0  0  0  0  0  0  0  0  0  0  0  0
   -4.3727  -10.3478    0.0000 C   0  0  0  0  0  0  0  0  0  0  0  0
   -5.3764  -11.4625    0.0000 C   0  0  0  0  0  0  0  0  0  0  0  0
   -4.6264  -12.7616    0.0000 N   0  0  0  0  0  0  0  0  0  0  0  0
   -4.6845   -8.8806    0.0000 C   0  0  0  0  0  0  0  0  0  0  0  0
   -6.1111   -8.4171    0.0000 C   0  0  0  0  0  0  0  0  0  0  0  0
   -6.4230   -6.9498    0.0000 N   0  0  0  0  0  0  0  0  0  0  0  0
   -5.3083   -5.9462    0.0000 C   0  0  0  0  0  0  0  0  0  0  0  0
   -5.3083   -4.4462    0.0000 N   0  0  0  0  0  0  0  0  0  0  0  0
   -3.8817   -3.9826    0.0000 N   0  0  0  0  0  0  0  0  0  0  0  0
   -3.0000   -5.1962    0.0000 N   0  0  0  0  0  0  0  0  0  0  0  0
   -1.5000   -5.1962    0.0000 C   0  0  0  0  0  0  0  0  0  0  0  0
   -0.7500   -3.8971    0.0000 C   0  0  0  0  0  0  0  0  0  0  0  0
    0.7500   -3.8971    0.0000 C   0  0  0  0  0  0  0  0  0  0  0  0
    1.5000   -2.5981    0.0000 C   0  0  0  0  0  0  0  0  0  0  0  0
    0.7500   -1.2990    0.0000 C   0  0  0  0  0  0  0  0  0  0  0  0
    1.5000    0.0000    0.0000 N   0  0  0  0  0  0  0  0  0  0  0  0
    0.7500    1.2990    0.0000 C   0  0  0  0  0  0  0  0  0  0  0  0
   -0.7500    1.2990    0.0000 C   0  0  0  0  0  0  0  0  0  0  0  0
   -1.5000    0.0000    0.0000 C   0  0  0  0  0  0  0  0  0  0  0  0
   -0.7500   -1.2990    0.0000 C   0  0  0  0  0  0  0  0  0  0  0  0
   -1.5000   -2.5981    0.0000 C   0  0  0  0  0  0  0  0  0  0  0  0
   -3.8817   -6.4097    0.0000 C   0  0  0  0  0  0  0  0  0  0  0  0
   -3.5698   -7.8769    0.0000 N   0  0  0  0  0  0  0  0  0  0  0  0
  1  2  1  0
  2  3  1  0
  3  4  1  0
  4  5  1  0
  5  6  2  0
  6  7  1  0
  7  8  2  0
  6  9  1  0
  9 10  2  0
 10 11  1  0
 11 12  2  0
 12 13  1  0
 13 14  2  0
 14 15  1  0
 15 16  1  0
 16 17  1  0
 17 18  2  0
 18 19  1  0
 19 20  2  0
 20 21  1  0
 21 22  2  0
 22 23  1  0
 23 24  2  0
 24 25  1  0
 25 26  2  0
 15 27  1  0
 27 28  2  0
  8  4  1  0
 28  9  1  0
 27 12  1  0
 26 17  1  0
 25 20  1  0
M  END
>  <Molecule>  (568) 
CHEMBL2001019

>  <Standard Type>  (568) 
Ki

>  <Standard Relation>  (568) 
>

>  <Standard Value>  (568) 
5011.87

>  <Standard Units>  (568) 
nM

>  <pChEMBL Value>  (568) 
nan

>  <Comment>  (568) 
inactive

>  <Compound Key>  (568) 
SID103905666

>  <Assay>  (568) 
CHEMBL1963742

>  <Assay Description>  (568) 
PUBCHEM_BIOASSAY: Navigating the Kinome. (Class of assay: other) Panel member name: JAK3

>  <BAO Format>  (568) 
assay format

>  <Target>  (568) 
CHEMBL2148

>  <Target Pref. Name>  (568) 
Tyrosine-protein kinase JAK3

>  <Target Organism>  (568) 
Homo sapiens

>  <Target Type>  (568) 
SINGLE PROTEIN

>  <Document>  (568) 
CHEMBL1201862

>  <Source>  (568) 
PubChem BioAssays

>  <Max Phase>  (568) 
1

>  <#Ro5 Violations>  (568) 
0

>  <Molecular Weight>  (568) 
372.39

>  <Ligand Efficiency BEI>  (568) 
nan

>  <Ligand Efficiency LE>  (568) 
nan

>  <Ligand Efficiency LLE>  (568) 
nan

>  <Ligand Efficiency SEI>  (568) 
nan

>  <ALogP>  (568) 
1.67

>  <Assay Organism>  (568) 
nan

>  <Assay Tissue ChEMBL ID>  (568) 
nan

>  <Assay Tissue Name>  (568) 
nan

>  <Assay Cell Type>  (568) 
nan

>  <Assay Subcellular Fraction>  (568) 
nan

>  <Organism Tax ID>  (568) 
9606

>  <BAO Format ID>  (568) 
BAO_0000019

>  <Published Type>  (568) 
nan

>  <Published Relation>  (568) 
nan

>  <Published Value>  (568) 
nan

>  <Published Units>  (568) 
nan

>  <Canonical Smiles>  (568) 
OCCn1cc(cn1)c2cnc3nnn(Cc4ccc5ncccc5c4)c3n2

>  <Data Validity Comment>  (568) 
nan

>  <Document Journal>  (568) 
nan

>  <Document Year>  (568) 
nan

>  <SRC ID>  (568) 
7

>  <UO Units>  (568) 
UO_0000065

>  <Potential Duplicate>  (568) 
False

>  <Class>  (568) 
0

$$$$

     RDKit          2D

 16 18  0  0  0  0  0  0  0  0999 V2000
   -1.6839   -7.2010    0.0000 C   0  0  0  0  0  0  0  0  0  0  0  0
   -1.5271   -5.7092    0.0000 C   0  0  0  0  0  0  0  0  0  0  0  0
   -2.7406   -4.8275    0.0000 C   0  0  0  0  0  0  0  0  0  0  0  0
   -2.5838   -3.3357    0.0000 C   0  0  0  0  0  0  0  0  0  0  0  0
   -3.7974   -2.4540    0.0000 C   0  0  0  0  0  0  0  0  0  0  0  0
   -1.2135   -2.7256    0.0000 C   0  0  0  0  0  0  0  0  0  0  0  0
   -0.0000   -3.6073    0.0000 C   0  0  0  0  0  0  0  0  0  0  0  0
   -0.1568   -5.0991    0.0000 N   0  0  0  0  0  0  0  0  0  0  0  0
    1.2135   -2.7256    0.0000 S   0  0  0  0  0  0  0  0  0  0  0  0
    0.7500   -1.2990    0.0000 C   0  0  0  0  0  0  0  0  0  0  0  0
    1.5000    0.0000    0.0000 C   0  0  0  0  0  0  0  0  0  0  0  0
    3.0000    0.0000    0.0000 N   0  0  0  0  0  0  0  0  0  0  0  0
    0.7500    1.2990    0.0000 N   0  0  0  0  0  0  0  0  0  0  0  0
   -0.7500    1.2990    0.0000 C   0  0  0  0  0  0  0  0  0  0  0  0
   -1.5000    0.0000    0.0000 N   0  0  0  0  0  0  0  0  0  0  0  0
   -0.7500   -1.2990    0.0000 C   0  0  0  0  0  0  0  0  0  0  0  0
  1  2  1  0
  2  3  2  0
  3  4  1  0
  4  5  1  0
  4  6  2  0
  6  7  1  0
  7  8  2  0
  7  9  1  0
  9 10  1  0
 10 11  2  0
 11 12  1  0
 11 13  1  0
 13 14  2  0
 14 15  1  0
 15 16  2  0
  8  2  1  0
 16  6  1  0
 16 10  1  0
M  END
>  <Molecule>  (569) 
CHEMBL504950

>  <Standard Type>  (569) 
Ki

>  <Standard Relation>  (569) 
>

>  <Standard Value>  (569) 
1584.89

>  <Standard Units>  (569) 
nM

>  <pChEMBL Value>  (569) 
nan

>  <Comment>  (569) 
inactive

>  <Compound Key>  (569) 
SID103905425

>  <Assay>  (569) 
CHEMBL1963742

>  <Assay Description>  (569) 
PUBCHEM_BIOASSAY: Navigating the Kinome. (Class of assay: other) Panel member name: JAK3

>  <BAO Format>  (569) 
assay format

>  <Target>  (569) 
CHEMBL2148

>  <Target Pref. Name>  (569) 
Tyrosine-protein kinase JAK3

>  <Target Organism>  (569) 
Homo sapiens

>  <Target Type>  (569) 
SINGLE PROTEIN

>  <Document>  (569) 
CHEMBL1201862

>  <Source>  (569) 
PubChem BioAssays

>  <Max Phase>  (569) 
0

>  <#Ro5 Violations>  (569) 
0

>  <Molecular Weight>  (569) 
230.3

>  <Ligand Efficiency BEI>  (569) 
nan

>  <Ligand Efficiency LE>  (569) 
nan

>  <Ligand Efficiency LLE>  (569) 
nan

>  <Ligand Efficiency SEI>  (569) 
nan

>  <ALogP>  (569) 
2.44

>  <Assay Organism>  (569) 
nan

>  <Assay Tissue ChEMBL ID>  (569) 
nan

>  <Assay Tissue Name>  (569) 
nan

>  <Assay Cell Type>  (569) 
nan

>  <Assay Subcellular Fraction>  (569) 
nan

>  <Organism Tax ID>  (569) 
9606

>  <BAO Format ID>  (569) 
BAO_0000019

>  <Published Type>  (569) 
nan

>  <Published Relation>  (569) 
nan

>  <Published Value>  (569) 
nan

>  <Published Units>  (569) 
nan

>  <Canonical Smiles>  (569) 
Cc1cc(C)c2c(n1)sc3c(N)ncnc23

>  <Data Validity Comment>  (569) 
nan

>  <Document Journal>  (569) 
nan

>  <Document Year>  (569) 
nan

>  <SRC ID>  (569) 
7

>  <UO Units>  (569) 
UO_0000065

>  <Potential Duplicate>  (569) 
False

>  <Class>  (569) 
0

$$$$

     RDKit          2D

 32 34  0  0  0  0  0  0  0  0999 V2000
    7.5000   -2.5981    0.0000 C   0  0  0  0  0  0  0  0  0  0  0  0
    6.0000   -2.5981    0.0000 N   0  0  0  0  0  0  0  0  0  0  0  0
    5.2500   -1.2990    0.0000 C   0  0  0  0  0  0  0  0  0  0  0  0
    6.0000    0.0000    0.0000 O   0  0  0  0  0  0  0  0  0  0  0  0
    3.7500   -1.2990    0.0000 C   0  0  0  0  0  0  0  0  0  0  0  0
    3.0000    0.0000    0.0000 O   0  0  0  0  0  0  0  0  0  0  0  0
    1.5000    0.0000    0.0000 C   0  0  0  0  0  0  0  0  0  0  0  0
    0.7500   -1.2990    0.0000 C   0  0  0  0  0  0  0  0  0  0  0  0
   -0.7500   -1.2990    0.0000 C   0  0  0  0  0  0  0  0  0  0  0  0
   -1.5000    0.0000    0.0000 C   0  0  0  0  0  0  0  0  0  0  0  0
   -3.0000    0.0000    0.0000 N   0  0  0  0  0  0  0  0  0  0  0  0
   -3.7500    1.2990    0.0000 C   0  0  0  0  0  0  0  0  0  0  0  0
   -3.0000    2.5981    0.0000 N   0  0  0  0  0  0  0  0  0  0  0  0
   -3.7500    3.8971    0.0000 C   0  0  0  0  0  0  0  0  0  0  0  0
   -3.0000    5.1962    0.0000 N   0  0  0  0  0  0  0  0  0  0  0  0
   -1.5000    5.1962    0.0000 C   0  0  0  0  0  0  0  0  0  0  0  0
   -0.7500    3.8971    0.0000 C   0  0  0  0  0  0  0  0  0  0  0  0
    0.7500    3.8971    0.0000 C   0  0  0  0  0  0  0  0  0  0  0  0
    1.5000    5.1962    0.0000 C   0  0  0  0  0  0  0  0  0  0  0  0
    3.0000    5.1962    0.0000 C   0  0  0  0  0  0  0  0  0  0  0  0
    0.7500    6.4952    0.0000 C   0  0  0  0  0  0  0  0  0  0  0  0
   -0.7500    6.4952    0.0000 C   0  0  0  0  0  0  0  0  0  0  0  0
    1.5000    7.7942    0.0000 S   0  0  0  0  0  0  0  0  0  0  0  0
    0.2010    8.5442    0.0000 O   0  0  0  0  0  0  0  0  0  0  0  0
    2.7990    7.0442    0.0000 O   0  0  0  0  0  0  0  0  0  0  0  0
    2.2500    9.0933    0.0000 N   0  0  0  0  0  0  0  0  0  0  0  0
   -5.2500    3.8971    0.0000 N   0  0  0  0  0  0  0  0  0  0  0  0
   -6.0000    2.5981    0.0000 C   0  0  0  0  0  0  0  0  0  0  0  0
   -5.2500    1.2990    0.0000 C   0  0  0  0  0  0  0  0  0  0  0  0
   -6.0000    0.0000    0.0000 F   0  0  0  0  0  0  0  0  0  0  0  0
   -0.7500    1.2990    0.0000 C   0  0  0  0  0  0  0  0  0  0  0  0
    0.7500    1.2990    0.0000 C   0  0  0  0  0  0  0  0  0  0  0  0
  1  2  1  0
  2  3  1  0
  3  4  2  0
  3  5  1  0
  5  6  1  0
  6  7  1  0
  7  8  2  0
  8  9  1  0
  9 10  2  0
 10 11  1  0
 11 12  1  0
 12 13  2  0
 13 14  1  0
 14 15  1  0
 15 16  1  0
 16 17  2  0
 17 18  1  0
 18 19  2  0
 19 20  1  0
 19 21  1  0
 21 22  2  0
 21 23  1  0
 23 24  2  0
 23 25  2  0
 23 26  1  0
 14 27  2  0
 27 28  1  0
 28 29  2  0
 29 30  1  0
 10 31  1  0
 31 32  2  0
 32  7  1  0
 29 12  1  0
 22 16  1  0
M  END
>  <Molecule>  (570) 
CHEMBL1978099

>  <Standard Type>  (570) 
Ki

>  <Standard Relation>  (570) 
=

>  <Standard Value>  (570) 
316.23

>  <Standard Units>  (570) 
nM

>  <pChEMBL Value>  (570) 
6.5

>  <Comment>  (570) 
active

>  <Compound Key>  (570) 
SID103904603

>  <Assay>  (570) 
CHEMBL1963742

>  <Assay Description>  (570) 
PUBCHEM_BIOASSAY: Navigating the Kinome. (Class of assay: other) Panel member name: JAK3

>  <BAO Format>  (570) 
assay format

>  <Target>  (570) 
CHEMBL2148

>  <Target Pref. Name>  (570) 
Tyrosine-protein kinase JAK3

>  <Target Organism>  (570) 
Homo sapiens

>  <Target Type>  (570) 
SINGLE PROTEIN

>  <Document>  (570) 
CHEMBL1201862

>  <Source>  (570) 
PubChem BioAssays

>  <Max Phase>  (570) 
0

>  <#Ro5 Violations>  (570) 
0

>  <Molecular Weight>  (570) 
460.49

>  <Ligand Efficiency BEI>  (570) 
nan

>  <Ligand Efficiency LE>  (570) 
nan

>  <Ligand Efficiency LLE>  (570) 
nan

>  <Ligand Efficiency SEI>  (570) 
nan

>  <ALogP>  (570) 
2.18

>  <Assay Organism>  (570) 
nan

>  <Assay Tissue ChEMBL ID>  (570) 
nan

>  <Assay Tissue Name>  (570) 
nan

>  <Assay Cell Type>  (570) 
nan

>  <Assay Subcellular Fraction>  (570) 
nan

>  <Organism Tax ID>  (570) 
9606

>  <BAO Format ID>  (570) 
BAO_0000019

>  <Published Type>  (570) 
nan

>  <Published Relation>  (570) 
nan

>  <Published Value>  (570) 
nan

>  <Published Units>  (570) 
nan

>  <Canonical Smiles>  (570) 
CNC(=O)COc1ccc(Nc2nc(Nc3ccc(C)c(c3)S(=O)(=O)N)ncc2F)cc1

>  <Data Validity Comment>  (570) 
nan

>  <Document Journal>  (570) 
nan

>  <Document Year>  (570) 
nan

>  <SRC ID>  (570) 
7

>  <UO Units>  (570) 
UO_0000065

>  <Potential Duplicate>  (570) 
False

>  <Class>  (570) 
1

$$$$

     RDKit          2D

 16 17  0  0  0  0  0  0  0  0999 V2000
   -2.9520   -4.6564    0.0000 C   0  0  0  0  0  0  0  0  0  0  0  0
   -2.6401   -3.1891    0.0000 S   0  0  0  0  0  0  0  0  0  0  0  0
   -1.2135   -2.7256    0.0000 C   0  0  0  0  0  0  0  0  0  0  0  0
   -0.0000   -3.6073    0.0000 C   0  0  0  0  0  0  0  0  0  0  0  0
    1.2135   -2.7256    0.0000 N   0  0  0  0  0  0  0  0  0  0  0  0
    0.7500   -1.2990    0.0000 C   0  0  0  0  0  0  0  0  0  0  0  0
    1.5000    0.0000    0.0000 N   0  0  0  0  0  0  0  0  0  0  0  0
    0.7500    1.2990    0.0000 C   0  0  0  0  0  0  0  0  0  0  0  0
   -0.7500    1.2990    0.0000 N   0  0  0  0  0  0  0  0  0  0  0  0
   -1.5000    0.0000    0.0000 C   0  0  0  0  0  0  0  0  0  0  0  0
   -3.0000    0.0000    0.0000 N   0  0  0  0  0  0  0  0  0  0  0  0
   -3.7500    1.2990    0.0000 C   0  0  0  0  0  0  0  0  0  0  0  0
   -5.2500    1.2990    0.0000 C   0  0  0  0  0  0  0  0  0  0  0  0
   -6.0000    2.5981    0.0000 C   0  0  0  0  0  0  0  0  0  0  0  0
   -7.5000    2.5981    0.0000 O   0  0  0  0  0  0  0  0  0  0  0  0
   -0.7500   -1.2990    0.0000 C   0  0  0  0  0  0  0  0  0  0  0  0
  1  2  1  0
  2  3  1  0
  3  4  2  0
  4  5  1  0
  5  6  1  0
  6  7  2  0
  7  8  1  0
  8  9  2  0
  9 10  1  0
 10 11  1  0
 11 12  1  0
 12 13  1  0
 13 14  1  0
 14 15  1  0
 10 16  2  0
 16  3  1  0
 16  6  1  0
M  END
>  <Molecule>  (571) 
CHEMBL2000114

>  <Standard Type>  (571) 
Ki

>  <Standard Relation>  (571) 
>

>  <Standard Value>  (571) 
1584.89

>  <Standard Units>  (571) 
nM

>  <pChEMBL Value>  (571) 
nan

>  <Comment>  (571) 
inactive

>  <Compound Key>  (571) 
SID103904504

>  <Assay>  (571) 
CHEMBL1963742

>  <Assay Description>  (571) 
PUBCHEM_BIOASSAY: Navigating the Kinome. (Class of assay: other) Panel member name: JAK3

>  <BAO Format>  (571) 
assay format

>  <Target>  (571) 
CHEMBL2148

>  <Target Pref. Name>  (571) 
Tyrosine-protein kinase JAK3

>  <Target Organism>  (571) 
Homo sapiens

>  <Target Type>  (571) 
SINGLE PROTEIN

>  <Document>  (571) 
CHEMBL1201862

>  <Source>  (571) 
PubChem BioAssays

>  <Max Phase>  (571) 
0

>  <#Ro5 Violations>  (571) 
0

>  <Molecular Weight>  (571) 
238.32

>  <Ligand Efficiency BEI>  (571) 
nan

>  <Ligand Efficiency LE>  (571) 
nan

>  <Ligand Efficiency LLE>  (571) 
nan

>  <Ligand Efficiency SEI>  (571) 
nan

>  <ALogP>  (571) 
1.47

>  <Assay Organism>  (571) 
nan

>  <Assay Tissue ChEMBL ID>  (571) 
nan

>  <Assay Tissue Name>  (571) 
nan

>  <Assay Cell Type>  (571) 
nan

>  <Assay Subcellular Fraction>  (571) 
nan

>  <Organism Tax ID>  (571) 
9606

>  <BAO Format ID>  (571) 
BAO_0000019

>  <Published Type>  (571) 
nan

>  <Published Relation>  (571) 
nan

>  <Published Value>  (571) 
nan

>  <Published Units>  (571) 
nan

>  <Canonical Smiles>  (571) 
CSc1c[nH]c2ncnc(NCCCO)c12

>  <Data Validity Comment>  (571) 
nan

>  <Document Journal>  (571) 
nan

>  <Document Year>  (571) 
nan

>  <SRC ID>  (571) 
7

>  <UO Units>  (571) 
UO_0000065

>  <Potential Duplicate>  (571) 
False

>  <Class>  (571) 
0

$$$$

     RDKit          2D

 31 34  0  0  0  0  0  0  0  0999 V2000
    3.0000    0.0000    0.0000 C   0  0  0  0  0  0  0  0  0  0  0  0
    1.5000    0.0000    0.0000 C   0  0  0  0  0  0  0  0  0  0  0  0
    0.7500   -1.2990    0.0000 N   0  0  0  0  0  0  0  0  0  0  0  0
   -0.7500   -1.2990    0.0000 C   0  0  0  0  0  0  0  0  0  0  0  0
   -1.5000    0.0000    0.0000 C   0  0  0  0  0  0  0  0  0  0  0  0
   -0.7500    1.2990    0.0000 N   0  0  0  0  0  0  0  0  0  0  0  0
   -1.2135    2.7256    0.0000 C   0  0  0  0  0  0  0  0  0  0  0  0
   -2.6401    3.1891    0.0000 C   0  0  0  0  0  0  0  0  0  0  0  0
   -2.9520    4.6564    0.0000 C   0  0  0  0  0  0  0  0  0  0  0  0
   -4.3786    5.1199    0.0000 C   0  0  0  0  0  0  0  0  0  0  0  0
   -5.4933    4.1162    0.0000 N   0  0  0  0  0  0  0  0  0  0  0  0
   -5.1814    2.6490    0.0000 C   0  0  0  0  0  0  0  0  0  0  0  0
   -6.2961    1.6453    0.0000 N   0  0  0  0  0  0  0  0  0  0  0  0
   -7.7227    2.1088    0.0000 C   0  0  0  0  0  0  0  0  0  0  0  0
   -8.8374    1.1051    0.0000 C   0  0  0  0  0  0  0  0  0  0  0  0
   -7.8337   -0.0096    0.0000 C   0  0  0  0  0  0  0  0  0  0  0  0
   -9.8411    2.2198    0.0000 C   0  0  0  0  0  0  0  0  0  0  0  0
   -9.9521    0.1014    0.0000 C   0  0  0  0  0  0  0  0  0  0  0  0
   -9.6403   -1.3658    0.0000 O   0  0  0  0  0  0  0  0  0  0  0  0
   -3.7548    2.1855    0.0000 N   0  0  0  0  0  0  0  0  0  0  0  0
   -0.0000    3.6073    0.0000 C   0  0  0  0  0  0  0  0  0  0  0  0
    1.2135    2.7256    0.0000 N   0  0  0  0  0  0  0  0  0  0  0  0
    0.7500    1.2990    0.0000 C   0  0  0  0  0  0  0  0  0  0  0  0
   -0.0000    5.1073    0.0000 C   0  0  0  0  0  0  0  0  0  0  0  0
   -1.2990    5.8573    0.0000 C   0  0  0  0  0  0  0  0  0  0  0  0
   -1.2990    7.3573    0.0000 C   0  0  0  0  0  0  0  0  0  0  0  0
   -0.0000    8.1073    0.0000 C   0  0  0  0  0  0  0  0  0  0  0  0
   -0.0000    9.6073    0.0000 F   0  0  0  0  0  0  0  0  0  0  0  0
    1.2990    7.3573    0.0000 C   0  0  0  0  0  0  0  0  0  0  0  0
    1.2990    5.8573    0.0000 C   0  0  0  0  0  0  0  0  0  0  0  0
    2.5981    5.1073    0.0000 F   0  0  0  0  0  0  0  0  0  0  0  0
  1  2  1  0
  2  3  2  0
  3  4  1  0
  4  5  2  0
  5  6  1  0
  6  7  1  0
  7  8  1  0
  8  9  2  0
  9 10  1  0
 10 11  2  0
 11 12  1  0
 12 13  1  0
 13 14  1  0
 14 15  1  0
 15 16  1  0
 15 17  1  0
 15 18  1  0
 18 19  1  0
 12 20  2  0
  7 21  2  0
 21 22  1  0
 22 23  2  0
 21 24  1  0
 24 25  2  0
 25 26  1  0
 26 27  2  0
 27 28  1  0
 27 29  1  0
 29 30  2  0
 30 31  1  0
 23  2  1  0
 23  6  1  0
 20  8  1  0
 30 24  1  0
M  END
>  <Molecule>  (572) 
CHEMBL1991678

>  <Standard Type>  (572) 
Ki

>  <Standard Relation>  (572) 
>

>  <Standard Value>  (572) 
5011.87

>  <Standard Units>  (572) 
nM

>  <pChEMBL Value>  (572) 
nan

>  <Comment>  (572) 
inactive

>  <Compound Key>  (572) 
SID103904779

>  <Assay>  (572) 
CHEMBL1963742

>  <Assay Description>  (572) 
PUBCHEM_BIOASSAY: Navigating the Kinome. (Class of assay: other) Panel member name: JAK3

>  <BAO Format>  (572) 
assay format

>  <Target>  (572) 
CHEMBL2148

>  <Target Pref. Name>  (572) 
Tyrosine-protein kinase JAK3

>  <Target Organism>  (572) 
Homo sapiens

>  <Target Type>  (572) 
SINGLE PROTEIN

>  <Document>  (572) 
CHEMBL1201862

>  <Source>  (572) 
PubChem BioAssays

>  <Max Phase>  (572) 
0

>  <#Ro5 Violations>  (572) 
0

>  <Molecular Weight>  (572) 
424.46

>  <Ligand Efficiency BEI>  (572) 
nan

>  <Ligand Efficiency LE>  (572) 
nan

>  <Ligand Efficiency LLE>  (572) 
nan

>  <Ligand Efficiency SEI>  (572) 
nan

>  <ALogP>  (572) 
3.87

>  <Assay Organism>  (572) 
nan

>  <Assay Tissue ChEMBL ID>  (572) 
nan

>  <Assay Tissue Name>  (572) 
nan

>  <Assay Cell Type>  (572) 
nan

>  <Assay Subcellular Fraction>  (572) 
nan

>  <Organism Tax ID>  (572) 
9606

>  <BAO Format ID>  (572) 
BAO_0000019

>  <Published Type>  (572) 
nan

>  <Published Relation>  (572) 
nan

>  <Published Value>  (572) 
nan

>  <Published Units>  (572) 
nan

>  <Canonical Smiles>  (572) 
Cc1nccn2c(c3ccnc(NCC(C)(C)CO)n3)c(nc12)c4ccc(F)cc4F

>  <Data Validity Comment>  (572) 
nan

>  <Document Journal>  (572) 
nan

>  <Document Year>  (572) 
nan

>  <SRC ID>  (572) 
7

>  <UO Units>  (572) 
UO_0000065

>  <Potential Duplicate>  (572) 
False

>  <Class>  (572) 
0

$$$$

     RDKit          2D

 30 32  0  0  0  0  0  0  0  0999 V2000
    3.0000    0.0000    0.0000 N   0  0  0  0  0  0  0  0  0  0  0  0
    1.5000    0.0000    0.0000 C   0  0  0  0  0  0  0  0  0  0  0  0
    0.7500   -1.2990    0.0000 N   0  0  0  0  0  0  0  0  0  0  0  0
   -0.7500   -1.2990    0.0000 C   0  0  0  0  0  0  0  0  0  0  0  0
   -1.5000    0.0000    0.0000 N   0  0  0  0  0  0  0  0  0  0  0  0
   -0.7500    1.2990    0.0000 C   0  0  0  0  0  0  0  0  0  0  0  0
   -1.5000    2.5981    0.0000 N   0  0  0  0  0  0  0  0  0  0  0  0
   -0.7500    3.8971    0.0000 C   0  0  0  0  0  0  0  0  0  0  0  0
    0.7500    3.8971    0.0000 C   0  0  0  0  0  0  0  0  0  0  0  0
    1.5000    5.1962    0.0000 C   0  0  0  0  0  0  0  0  0  0  0  0
    3.0000    5.1962    0.0000 C   0  0  0  0  0  0  0  0  0  0  0  0
    3.7500    3.8971    0.0000 N   0  0  0  0  0  0  0  0  0  0  0  0
    5.2500    3.8971    0.0000 C   0  0  0  0  0  0  0  0  0  0  0  0
    6.0000    5.1962    0.0000 O   0  0  0  0  0  0  0  0  0  0  0  0
    6.0000    2.5981    0.0000 C   0  0  0  0  0  0  0  0  0  0  0  0
    6.7500    1.2990    0.0000 F   0  0  0  0  0  0  0  0  0  0  0  0
    7.2990    3.3481    0.0000 F   0  0  0  0  0  0  0  0  0  0  0  0
    4.7010    1.8481    0.0000 F   0  0  0  0  0  0  0  0  0  0  0  0
    0.7500    6.4952    0.0000 C   0  0  0  0  0  0  0  0  0  0  0  0
    1.5000    7.7942    0.0000 O   0  0  0  0  0  0  0  0  0  0  0  0
   -0.7500    6.4952    0.0000 C   0  0  0  0  0  0  0  0  0  0  0  0
   -1.5000    5.1962    0.0000 C   0  0  0  0  0  0  0  0  0  0  0  0
   -1.5000    7.7942    0.0000 C   0  0  0  0  0  0  0  0  0  0  0  0
   -0.7500    9.0933    0.0000 C   0  0  0  0  0  0  0  0  0  0  0  0
   -1.5000   10.3923    0.0000 C   0  0  0  0  0  0  0  0  0  0  0  0
   -3.0000   10.3923    0.0000 C   0  0  0  0  0  0  0  0  0  0  0  0
   -3.7500   11.6913    0.0000 Cl  0  0  0  0  0  0  0  0  0  0  0  0
   -3.7500    9.0933    0.0000 C   0  0  0  0  0  0  0  0  0  0  0  0
   -3.0000    7.7942    0.0000 C   0  0  0  0  0  0  0  0  0  0  0  0
    0.7500    1.2990    0.0000 N   0  0  0  0  0  0  0  0  0  0  0  0
  1  2  1  0
  2  3  2  0
  3  4  1  0
  4  5  2  0
  5  6  1  0
  6  7  1  0
  7  8  1  0
  8  9  2  0
  9 10  1  0
 10 11  1  0
 11 12  1  0
 12 13  1  0
 13 14  2  0
 13 15  1  0
 15 16  1  0
 15 17  1  0
 15 18  1  0
 10 19  2  0
 19 20  1  0
 19 21  1  0
 21 22  2  0
 21 23  1  0
 23 24  2  0
 24 25  1  0
 25 26  2  0
 26 27  1  0
 26 28  1  0
 28 29  2  0
  6 30  2  0
 30  2  1  0
 22  8  1  0
 29 23  1  0
M  END
>  <Molecule>  (573) 
CHEMBL2001239

>  <Standard Type>  (573) 
Ki

>  <Standard Relation>  (573) 
>

>  <Standard Value>  (573) 
1584.89

>  <Standard Units>  (573) 
nM

>  <pChEMBL Value>  (573) 
nan

>  <Comment>  (573) 
inactive

>  <Compound Key>  (573) 
SID103905496

>  <Assay>  (573) 
CHEMBL1963742

>  <Assay Description>  (573) 
PUBCHEM_BIOASSAY: Navigating the Kinome. (Class of assay: other) Panel member name: JAK3

>  <BAO Format>  (573) 
assay format

>  <Target>  (573) 
CHEMBL2148

>  <Target Pref. Name>  (573) 
Tyrosine-protein kinase JAK3

>  <Target Organism>  (573) 
Homo sapiens

>  <Target Type>  (573) 
SINGLE PROTEIN

>  <Document>  (573) 
CHEMBL1201862

>  <Source>  (573) 
PubChem BioAssays

>  <Max Phase>  (573) 
0

>  <#Ro5 Violations>  (573) 
0

>  <Molecular Weight>  (573) 
438.8

>  <Ligand Efficiency BEI>  (573) 
nan

>  <Ligand Efficiency LE>  (573) 
nan

>  <Ligand Efficiency LLE>  (573) 
nan

>  <Ligand Efficiency SEI>  (573) 
nan

>  <ALogP>  (573) 
3.4

>  <Assay Organism>  (573) 
nan

>  <Assay Tissue ChEMBL ID>  (573) 
nan

>  <Assay Tissue Name>  (573) 
nan

>  <Assay Cell Type>  (573) 
nan

>  <Assay Subcellular Fraction>  (573) 
nan

>  <Organism Tax ID>  (573) 
9606

>  <BAO Format ID>  (573) 
BAO_0000019

>  <Published Type>  (573) 
nan

>  <Published Relation>  (573) 
nan

>  <Published Value>  (573) 
nan

>  <Published Units>  (573) 
nan

>  <Canonical Smiles>  (573) 
Nc1ncnc(Nc2cc(CNC(=O)C(F)(F)F)c(O)c(c2)c3ccc(Cl)cc3)n1

>  <Data Validity Comment>  (573) 
nan

>  <Document Journal>  (573) 
nan

>  <Document Year>  (573) 
nan

>  <SRC ID>  (573) 
7

>  <UO Units>  (573) 
UO_0000065

>  <Potential Duplicate>  (573) 
False

>  <Class>  (573) 
0

$$$$

     RDKit          2D

 25 28  0  0  0  0  0  0  0  0999 V2000
    3.7500   -1.2990    0.0000 C   0  0  0  0  0  0  0  0  0  0  0  0
    3.0000    0.0000    0.0000 O   0  0  0  0  0  0  0  0  0  0  0  0
    1.5000    0.0000    0.0000 C   0  0  0  0  0  0  0  0  0  0  0  0
    0.7500   -1.2990    0.0000 C   0  0  0  0  0  0  0  0  0  0  0  0
   -0.7500   -1.2990    0.0000 C   0  0  0  0  0  0  0  0  0  0  0  0
   -1.5000   -2.5981    0.0000 N   0  0  0  0  0  0  0  0  0  0  0  0
   -3.0000   -2.5981    0.0000 C   0  0  0  0  0  0  0  0  0  0  0  0
   -3.7500   -1.2990    0.0000 C   0  0  0  0  0  0  0  0  0  0  0  0
   -5.2500   -1.2990    0.0000 C   0  0  0  0  0  0  0  0  0  0  0  0
   -6.0000   -2.5981    0.0000 N   0  0  0  0  0  0  0  0  0  0  0  0
   -6.0000    0.0000    0.0000 N   0  0  0  0  0  0  0  0  0  0  0  0
   -5.2500    1.2990    0.0000 C   0  0  0  0  0  0  0  0  0  0  0  0
   -6.0000    2.5981    0.0000 C   0  0  0  0  0  0  0  0  0  0  0  0
   -7.5000    2.5981    0.0000 C   0  0  0  0  0  0  0  0  0  0  0  0
   -5.2500    3.8971    0.0000 C   0  0  0  0  0  0  0  0  0  0  0  0
   -6.0000    5.1962    0.0000 N   0  0  0  0  0  0  0  0  0  0  0  0
   -3.7500    3.8971    0.0000 C   0  0  0  0  0  0  0  0  0  0  0  0
   -3.0000    2.5981    0.0000 C   0  0  0  0  0  0  0  0  0  0  0  0
   -3.7500    1.2990    0.0000 C   0  0  0  0  0  0  0  0  0  0  0  0
   -3.0000    0.0000    0.0000 C   0  0  0  0  0  0  0  0  0  0  0  0
   -1.5000    0.0000    0.0000 C   0  0  0  0  0  0  0  0  0  0  0  0
   -0.7500    1.2990    0.0000 C   0  0  0  0  0  0  0  0  0  0  0  0
    0.7500    1.2990    0.0000 C   0  0  0  0  0  0  0  0  0  0  0  0
    1.5000    2.5981    0.0000 O   0  0  0  0  0  0  0  0  0  0  0  0
    3.0000    2.5981    0.0000 C   0  0  0  0  0  0  0  0  0  0  0  0
  1  2  1  0
  2  3  1  0
  3  4  2  0
  4  5  1  0
  5  6  2  0
  6  7  1  0
  7  8  2  0
  8  9  1  0
  9 10  1  0
  9 11  2  0
 11 12  1  0
 12 13  2  0
 13 14  1  0
 13 15  1  0
 15 16  1  0
 15 17  2  0
 17 18  1  0
 18 19  2  0
 19 20  1  0
 20 21  2  0
 21 22  1  0
 22 23  2  0
 23 24  1  0
 24 25  1  0
 23  3  1  0
 21  5  1  0
 20  8  1  0
 19 12  1  0
M  END
>  <Molecule>  (574) 
CHEMBL235157

>  <Standard Type>  (574) 
Ki

>  <Standard Relation>  (574) 
>

>  <Standard Value>  (574) 
5011.87

>  <Standard Units>  (574) 
nM

>  <pChEMBL Value>  (574) 
nan

>  <Comment>  (574) 
inactive

>  <Compound Key>  (574) 
SID103905635

>  <Assay>  (574) 
CHEMBL1963742

>  <Assay Description>  (574) 
PUBCHEM_BIOASSAY: Navigating the Kinome. (Class of assay: other) Panel member name: JAK3

>  <BAO Format>  (574) 
assay format

>  <Target>  (574) 
CHEMBL2148

>  <Target Pref. Name>  (574) 
Tyrosine-protein kinase JAK3

>  <Target Organism>  (574) 
Homo sapiens

>  <Target Type>  (574) 
SINGLE PROTEIN

>  <Document>  (574) 
CHEMBL1201862

>  <Source>  (574) 
PubChem BioAssays

>  <Max Phase>  (574) 
0

>  <#Ro5 Violations>  (574) 
0

>  <Molecular Weight>  (574) 
334.38

>  <Ligand Efficiency BEI>  (574) 
nan

>  <Ligand Efficiency LE>  (574) 
nan

>  <Ligand Efficiency LLE>  (574) 
nan

>  <Ligand Efficiency SEI>  (574) 
nan

>  <ALogP>  (574) 
3.43

>  <Assay Organism>  (574) 
nan

>  <Assay Tissue ChEMBL ID>  (574) 
nan

>  <Assay Tissue Name>  (574) 
nan

>  <Assay Cell Type>  (574) 
nan

>  <Assay Subcellular Fraction>  (574) 
nan

>  <Organism Tax ID>  (574) 
9606

>  <BAO Format ID>  (574) 
BAO_0000019

>  <Published Type>  (574) 
nan

>  <Published Relation>  (574) 
nan

>  <Published Value>  (574) 
nan

>  <Published Units>  (574) 
nan

>  <Canonical Smiles>  (574) 
COc1cc2ncc3c(N)nc4c(C)c(N)ccc4c3c2cc1OC

>  <Data Validity Comment>  (574) 
nan

>  <Document Journal>  (574) 
nan

>  <Document Year>  (574) 
nan

>  <SRC ID>  (574) 
7

>  <UO Units>  (574) 
UO_0000065

>  <Potential Duplicate>  (574) 
False

>  <Class>  (574) 
0

$$$$

     RDKit          2D

 26 29  0  0  0  0  0  0  0  0999 V2000
    4.8068    9.4767    0.0000 O   0  0  0  0  0  0  0  0  0  0  0  0
    3.3802    9.0132    0.0000 C   0  0  0  0  0  0  0  0  0  0  0  0
    2.2655   10.0169    0.0000 O   0  0  0  0  0  0  0  0  0  0  0  0
    3.0684    7.5459    0.0000 C   0  0  0  0  0  0  0  0  0  0  0  0
    4.1831    6.5422    0.0000 C   0  0  0  0  0  0  0  0  0  0  0  0
    3.8712    5.0750    0.0000 C   0  0  0  0  0  0  0  0  0  0  0  0
    2.4446    4.6115    0.0000 C   0  0  0  0  0  0  0  0  0  0  0  0
    1.3299    5.6152    0.0000 C   0  0  0  0  0  0  0  0  0  0  0  0
    1.6418    7.0824    0.0000 C   0  0  0  0  0  0  0  0  0  0  0  0
    0.5271    8.0861    0.0000 N   0  0  0  0  0  0  0  0  0  0  0  0
   -0.8995    7.6226    0.0000 C   0  0  0  0  0  0  0  0  0  0  0  0
   -2.0143    8.6263    0.0000 C   0  0  0  0  0  0  0  0  0  0  0  0
   -3.4408    8.1628    0.0000 C   0  0  0  0  0  0  0  0  0  0  0  0
   -3.7527    6.6955    0.0000 N   0  0  0  0  0  0  0  0  0  0  0  0
   -2.6380    5.6918    0.0000 C   0  0  0  0  0  0  0  0  0  0  0  0
   -2.9499    4.2246    0.0000 N   0  0  0  0  0  0  0  0  0  0  0  0
   -1.8351    3.2209    0.0000 C   0  0  0  0  0  0  0  0  0  0  0  0
   -0.4086    3.6844    0.0000 C   0  0  0  0  0  0  0  0  0  0  0  0
    0.7062    2.6807    0.0000 C   0  0  0  0  0  0  0  0  0  0  0  0
    0.3943    1.2135    0.0000 C   0  0  0  0  0  0  0  0  0  0  0  0
    1.2760    0.0000    0.0000 N   0  0  0  0  0  0  0  0  0  0  0  0
    0.3943   -1.2135    0.0000 N   0  0  0  0  0  0  0  0  0  0  0  0
   -1.0323   -0.7500    0.0000 C   0  0  0  0  0  0  0  0  0  0  0  0
   -1.0323    0.7500    0.0000 C   0  0  0  0  0  0  0  0  0  0  0  0
   -2.1470    1.7537    0.0000 C   0  0  0  0  0  0  0  0  0  0  0  0
   -1.2114    6.1554    0.0000 N   0  0  0  0  0  0  0  0  0  0  0  0
  1  2  1  0
  2  3  2  0
  2  4  1  0
  4  5  2  0
  5  6  1  0
  6  7  2  0
  7  8  1  0
  8  9  2  0
  9 10  1  0
 10 11  1  0
 11 12  2  0
 12 13  1  0
 13 14  2  0
 14 15  1  0
 15 16  1  0
 16 17  1  0
 17 18  2  0
 18 19  1  0
 19 20  2  0
 20 21  1  0
 21 22  1  0
 22 23  2  0
 23 24  1  0
 24 25  2  0
 15 26  2  0
  9  4  1  0
 26 11  1  0
 25 17  1  0
 24 20  1  0
M  END
>  <Molecule>  (575) 
CHEMBL396523

>  <Standard Type>  (575) 
Ki

>  <Standard Relation>  (575) 
=

>  <Standard Value>  (575) 
19.95

>  <Standard Units>  (575) 
nM

>  <pChEMBL Value>  (575) 
7.7

>  <Comment>  (575) 
active

>  <Compound Key>  (575) 
SID103904593

>  <Assay>  (575) 
CHEMBL1963742

>  <Assay Description>  (575) 
PUBCHEM_BIOASSAY: Navigating the Kinome. (Class of assay: other) Panel member name: JAK3

>  <BAO Format>  (575) 
assay format

>  <Target>  (575) 
CHEMBL2148

>  <Target Pref. Name>  (575) 
Tyrosine-protein kinase JAK3

>  <Target Organism>  (575) 
Homo sapiens

>  <Target Type>  (575) 
SINGLE PROTEIN

>  <Document>  (575) 
CHEMBL1201862

>  <Source>  (575) 
PubChem BioAssays

>  <Max Phase>  (575) 
0

>  <#Ro5 Violations>  (575) 
0

>  <Molecular Weight>  (575) 
346.35

>  <Ligand Efficiency BEI>  (575) 
nan

>  <Ligand Efficiency LE>  (575) 
nan

>  <Ligand Efficiency LLE>  (575) 
nan

>  <Ligand Efficiency SEI>  (575) 
nan

>  <ALogP>  (575) 
3.54

>  <Assay Organism>  (575) 
nan

>  <Assay Tissue ChEMBL ID>  (575) 
nan

>  <Assay Tissue Name>  (575) 
nan

>  <Assay Cell Type>  (575) 
nan

>  <Assay Subcellular Fraction>  (575) 
nan

>  <Organism Tax ID>  (575) 
9606

>  <BAO Format ID>  (575) 
BAO_0000019

>  <Published Type>  (575) 
nan

>  <Published Relation>  (575) 
nan

>  <Published Value>  (575) 
nan

>  <Published Units>  (575) 
nan

>  <Canonical Smiles>  (575) 
OC(=O)c1ccccc1Nc2ccnc(Nc3ccc4[nH]ncc4c3)n2

>  <Data Validity Comment>  (575) 
nan

>  <Document Journal>  (575) 
nan

>  <Document Year>  (575) 
nan

>  <SRC ID>  (575) 
7

>  <UO Units>  (575) 
UO_0000065

>  <Potential Duplicate>  (575) 
False

>  <Class>  (575) 
1

$$$$

     RDKit          2D

 30 33  0  0  0  0  0  0  0  0999 V2000
    3.0000    0.0000    0.0000 Cl  0  0  0  0  0  0  0  0  0  0  0  0
    1.5000    0.0000    0.0000 C   0  0  0  0  0  0  0  0  0  0  0  0
    0.7500   -1.2990    0.0000 C   0  0  0  0  0  0  0  0  0  0  0  0
   -0.7500   -1.2990    0.0000 C   0  0  0  0  0  0  0  0  0  0  0  0
   -1.5000    0.0000    0.0000 C   0  0  0  0  0  0  0  0  0  0  0  0
   -0.7500    1.2990    0.0000 C   0  0  0  0  0  0  0  0  0  0  0  0
    0.7500    1.2990    0.0000 C   0  0  0  0  0  0  0  0  0  0  0  0
   -3.0000    0.0000    0.0000 C   0  0  0  0  0  0  0  0  0  0  0  0
   -3.7500    1.2990    0.0000 C   0  0  0  0  0  0  0  0  0  0  0  0
   -5.2500    1.2990    0.0000 C   0  0  0  0  0  0  0  0  0  0  0  0
   -6.0000    0.0000    0.0000 C   0  0  0  0  0  0  0  0  0  0  0  0
   -7.5000    0.0000    0.0000 C   0  0  0  0  0  0  0  0  0  0  0  0
   -9.0000   -0.0000    0.0000 N   0  0  0  0  0  0  0  0  0  0  0  0
   -5.2500   -1.2990    0.0000 C   0  0  0  0  0  0  0  0  0  0  0  0
   -6.0000   -2.5981    0.0000 O   0  0  0  0  0  0  0  0  0  0  0  0
   -3.7500   -1.2990    0.0000 C   0  0  0  0  0  0  0  0  0  0  0  0
   -3.0000   -2.5981    0.0000 C   0  0  0  0  0  0  0  0  0  0  0  0
   -1.5000   -2.5981    0.0000 O   0  0  0  0  0  0  0  0  0  0  0  0
   -3.7500   -3.8971    0.0000 C   0  0  0  0  0  0  0  0  0  0  0  0
   -5.2500   -3.8971    0.0000 C   0  0  0  0  0  0  0  0  0  0  0  0
   -6.0000   -5.1962    0.0000 C   0  0  0  0  0  0  0  0  0  0  0  0
   -5.2500   -6.4952    0.0000 C   0  0  0  0  0  0  0  0  0  0  0  0
   -3.7500   -6.4952    0.0000 C   0  0  0  0  0  0  0  0  0  0  0  0
   -3.0000   -5.1962    0.0000 C   0  0  0  0  0  0  0  0  0  0  0  0
   -6.0000    2.5981    0.0000 C   0  0  0  0  0  0  0  0  0  0  0  0
   -5.2500    3.8971    0.0000 C   0  0  0  0  0  0  0  0  0  0  0  0
   -6.0000    5.1962    0.0000 C   0  0  0  0  0  0  0  0  0  0  0  0
   -7.5000    5.1962    0.0000 C   0  0  0  0  0  0  0  0  0  0  0  0
   -8.2500    3.8971    0.0000 C   0  0  0  0  0  0  0  0  0  0  0  0
   -7.5000    2.5981    0.0000 C   0  0  0  0  0  0  0  0  0  0  0  0
  1  2  1  0
  2  3  2  0
  3  4  1  0
  4  5  2  0
  5  6  1  0
  6  7  2  0
  5  8  1  0
  8  9  1  0
  9 10  1  0
 10 11  2  0
 11 12  1  0
 12 13  3  0
 11 14  1  0
 14 15  2  0
 14 16  1  0
 16 17  1  0
 17 18  2  0
 17 19  1  0
 19 20  2  0
 20 21  1  0
 21 22  2  0
 22 23  1  0
 23 24  2  0
 10 25  1  0
 25 26  2  0
 26 27  1  0
 27 28  2  0
 28 29  1  0
 29 30  2  0
  7  2  1  0
 16  8  1  0
 24 19  1  0
 30 25  1  0
M  END
>  <Molecule>  (576) 
CHEMBL1978371

>  <Standard Type>  (576) 
Ki

>  <Standard Relation>  (576) 
>

>  <Standard Value>  (576) 
5011.87

>  <Standard Units>  (576) 
nM

>  <pChEMBL Value>  (576) 
nan

>  <Comment>  (576) 
inactive

>  <Compound Key>  (576) 
SID103905503

>  <Assay>  (576) 
CHEMBL1963742

>  <Assay Description>  (576) 
PUBCHEM_BIOASSAY: Navigating the Kinome. (Class of assay: other) Panel member name: JAK3

>  <BAO Format>  (576) 
assay format

>  <Target>  (576) 
CHEMBL2148

>  <Target Pref. Name>  (576) 
Tyrosine-protein kinase JAK3

>  <Target Organism>  (576) 
Homo sapiens

>  <Target Type>  (576) 
SINGLE PROTEIN

>  <Document>  (576) 
CHEMBL1201862

>  <Source>  (576) 
PubChem BioAssays

>  <Max Phase>  (576) 
0

>  <#Ro5 Violations>  (576) 
1

>  <Molecular Weight>  (576) 
411.89

>  <Ligand Efficiency BEI>  (576) 
nan

>  <Ligand Efficiency LE>  (576) 
nan

>  <Ligand Efficiency LLE>  (576) 
nan

>  <Ligand Efficiency SEI>  (576) 
nan

>  <ALogP>  (576) 
5.87

>  <Assay Organism>  (576) 
nan

>  <Assay Tissue ChEMBL ID>  (576) 
nan

>  <Assay Tissue Name>  (576) 
nan

>  <Assay Cell Type>  (576) 
nan

>  <Assay Subcellular Fraction>  (576) 
nan

>  <Organism Tax ID>  (576) 
9606

>  <BAO Format ID>  (576) 
BAO_0000019

>  <Published Type>  (576) 
nan

>  <Published Relation>  (576) 
nan

>  <Published Value>  (576) 
nan

>  <Published Units>  (576) 
nan

>  <Canonical Smiles>  (576) 
Clc1ccc(cc1)C2CC(=C(C#N)C(=O)C2C(=O)c3ccccc3)c4ccccc4

>  <Data Validity Comment>  (576) 
nan

>  <Document Journal>  (576) 
nan

>  <Document Year>  (576) 
nan

>  <SRC ID>  (576) 
7

>  <UO Units>  (576) 
UO_0000065

>  <Potential Duplicate>  (576) 
False

>  <Class>  (576) 
0

$$$$

     RDKit          2D

 30 34  0  0  0  0  0  0  0  0999 V2000
   -1.8373   -5.6601    0.0000 O   0  0  0  0  0  0  0  0  0  0  0  0
   -2.9520   -4.6564    0.0000 C   0  0  0  0  0  0  0  0  0  0  0  0
   -2.6401   -3.1891    0.0000 N   0  0  0  0  0  0  0  0  0  0  0  0
   -1.2135   -2.7256    0.0000 C   0  0  0  0  0  0  0  0  0  0  0  0
    0.0000   -3.6073    0.0000 N   0  0  0  0  0  0  0  0  0  0  0  0
    1.2135   -2.7256    0.0000 N   0  0  0  0  0  0  0  0  0  0  0  0
    0.7500   -1.2990    0.0000 C   0  0  0  0  0  0  0  0  0  0  0  0
    1.5000    0.0000    0.0000 C   0  0  0  0  0  0  0  0  0  0  0  0
    0.7500    1.2990    0.0000 C   0  0  0  0  0  0  0  0  0  0  0  0
   -0.7500    1.2990    0.0000 C   0  0  0  0  0  0  0  0  0  0  0  0
   -1.5000    0.0000    0.0000 C   0  0  0  0  0  0  0  0  0  0  0  0
   -0.7500   -1.2990    0.0000 C   0  0  0  0  0  0  0  0  0  0  0  0
   -1.5000    2.5981    0.0000 C   0  0  0  0  0  0  0  0  0  0  0  0
   -2.9918    2.7549    0.0000 C   0  0  0  0  0  0  0  0  0  0  0  0
   -3.3037    4.2221    0.0000 N   0  0  0  0  0  0  0  0  0  0  0  0
   -4.6740    4.8322    0.0000 C   0  0  0  0  0  0  0  0  0  0  0  0
   -4.8308    6.3240    0.0000 C   0  0  0  0  0  0  0  0  0  0  0  0
   -3.6172    7.2057    0.0000 C   0  0  0  0  0  0  0  0  0  0  0  0
   -3.7740    8.6974    0.0000 C   0  0  0  0  0  0  0  0  0  0  0  0
   -5.1443    9.3075    0.0000 C   0  0  0  0  0  0  0  0  0  0  0  0
   -6.3579    8.4259    0.0000 C   0  0  0  0  0  0  0  0  0  0  0  0
   -6.2011    6.9341    0.0000 C   0  0  0  0  0  0  0  0  0  0  0  0
   -2.0046    4.9721    0.0000 N   0  0  0  0  0  0  0  0  0  0  0  0
   -0.8899    3.9684    0.0000 N   0  0  0  0  0  0  0  0  0  0  0  0
   -4.3786   -5.1199    0.0000 C   0  0  0  0  0  0  0  0  0  0  0  0
   -5.4933   -4.1162    0.0000 C   0  0  0  0  0  0  0  0  0  0  0  0
   -6.9199   -4.5797    0.0000 C   0  0  0  0  0  0  0  0  0  0  0  0
   -7.2317   -6.0469    0.0000 C   0  0  0  0  0  0  0  0  0  0  0  0
   -6.1170   -7.0506    0.0000 C   0  0  0  0  0  0  0  0  0  0  0  0
   -4.6904   -6.5871    0.0000 C   0  0  0  0  0  0  0  0  0  0  0  0
  1  2  2  0
  2  3  1  0
  3  4  1  0
  4  5  2  0
  5  6  1  0
  6  7  1  0
  7  8  2  0
  8  9  1  0
  9 10  2  0
 10 11  1  0
 11 12  2  0
 10 13  1  0
 13 14  2  0
 14 15  1  0
 15 16  1  0
 16 17  1  0
 17 18  2  0
 18 19  1  0
 19 20  2  0
 20 21  1  0
 21 22  2  0
 15 23  1  0
 23 24  2  0
  2 25  1  0
 25 26  2  0
 26 27  1  0
 27 28  2  0
 28 29  1  0
 29 30  2  0
 12  4  1  0
 12  7  1  0
 24 13  1  0
 22 17  1  0
 30 25  1  0
M  END
>  <Molecule>  (577) 
CHEMBL1999931

>  <Standard Type>  (577) 
Ki

>  <Standard Relation>  (577) 
=

>  <Standard Value>  (577) 
79.43

>  <Standard Units>  (577) 
nM

>  <pChEMBL Value>  (577) 
7.1

>  <Comment>  (577) 
active

>  <Compound Key>  (577) 
SID103904511

>  <Assay>  (577) 
CHEMBL1963742

>  <Assay Description>  (577) 
PUBCHEM_BIOASSAY: Navigating the Kinome. (Class of assay: other) Panel member name: JAK3

>  <BAO Format>  (577) 
assay format

>  <Target>  (577) 
CHEMBL2148

>  <Target Pref. Name>  (577) 
Tyrosine-protein kinase JAK3

>  <Target Organism>  (577) 
Homo sapiens

>  <Target Type>  (577) 
SINGLE PROTEIN

>  <Document>  (577) 
CHEMBL1201862

>  <Source>  (577) 
PubChem BioAssays

>  <Max Phase>  (577) 
0

>  <#Ro5 Violations>  (577) 
0

>  <Molecular Weight>  (577) 
394.44

>  <Ligand Efficiency BEI>  (577) 
nan

>  <Ligand Efficiency LE>  (577) 
nan

>  <Ligand Efficiency LLE>  (577) 
nan

>  <Ligand Efficiency SEI>  (577) 
nan

>  <ALogP>  (577) 
4.12

>  <Assay Organism>  (577) 
nan

>  <Assay Tissue ChEMBL ID>  (577) 
nan

>  <Assay Tissue Name>  (577) 
nan

>  <Assay Cell Type>  (577) 
nan

>  <Assay Subcellular Fraction>  (577) 
nan

>  <Organism Tax ID>  (577) 
9606

>  <BAO Format ID>  (577) 
BAO_0000019

>  <Published Type>  (577) 
nan

>  <Published Relation>  (577) 
nan

>  <Published Value>  (577) 
nan

>  <Published Units>  (577) 
nan

>  <Canonical Smiles>  (577) 
O=C(Nc1n[nH]c2ccc(cc12)c3cn(Cc4ccccc4)nn3)c5ccccc5

>  <Data Validity Comment>  (577) 
nan

>  <Document Journal>  (577) 
nan

>  <Document Year>  (577) 
nan

>  <SRC ID>  (577) 
7

>  <UO Units>  (577) 
UO_0000065

>  <Potential Duplicate>  (577) 
False

>  <Class>  (577) 
1

$$$$

     RDKit          2D

 30 34  0  0  0  0  0  0  0  0999 V2000
    3.0000    0.0000    0.0000 N   0  0  0  0  0  0  0  0  0  0  0  0
    1.5000    0.0000    0.0000 C   0  0  0  0  0  0  0  0  0  0  0  0
    0.7500   -1.2990    0.0000 N   0  0  0  0  0  0  0  0  0  0  0  0
   -0.7500   -1.2990    0.0000 C   0  0  0  0  0  0  0  0  0  0  0  0
   -1.5000    0.0000    0.0000 N   0  0  0  0  0  0  0  0  0  0  0  0
   -0.7500    1.2990    0.0000 C   0  0  0  0  0  0  0  0  0  0  0  0
    0.7500    1.2990    0.0000 C   0  0  0  0  0  0  0  0  0  0  0  0
    1.2135    2.7256    0.0000 C   0  0  0  0  0  0  0  0  0  0  0  0
   -0.0000    3.6073    0.0000 C   0  0  0  0  0  0  0  0  0  0  0  0
   -1.2135    2.7256    0.0000 N   0  0  0  0  0  0  0  0  0  0  0  0
   -2.6401    3.1891    0.0000 C   0  0  0  0  0  0  0  0  0  0  0  0
   -3.8536    2.3075    0.0000 C   0  0  0  0  0  0  0  0  0  0  0  0
   -5.0672    3.1891    0.0000 C   0  0  0  0  0  0  0  0  0  0  0  0
   -4.6036    4.6157    0.0000 O   0  0  0  0  0  0  0  0  0  0  0  0
   -3.1036    4.6157    0.0000 C   0  0  0  0  0  0  0  0  0  0  0  0
    2.6401    3.1891    0.0000 C   0  0  0  0  0  0  0  0  0  0  0  0
    3.7548    2.1855    0.0000 C   0  0  0  0  0  0  0  0  0  0  0  0
    5.1814    2.6490    0.0000 C   0  0  0  0  0  0  0  0  0  0  0  0
    5.4933    4.1162    0.0000 C   0  0  0  0  0  0  0  0  0  0  0  0
    6.9199    4.5797    0.0000 O   0  0  0  0  0  0  0  0  0  0  0  0
    8.0346    3.5760    0.0000 C   0  0  0  0  0  0  0  0  0  0  0  0
    7.7227    2.1088    0.0000 C   0  0  0  0  0  0  0  0  0  0  0  0
    8.8374    1.1051    0.0000 C   0  0  0  0  0  0  0  0  0  0  0  0
   10.2640    1.5686    0.0000 C   0  0  0  0  0  0  0  0  0  0  0  0
   11.3787    0.5649    0.0000 C   0  0  0  0  0  0  0  0  0  0  0  0
   11.0669   -0.9023    0.0000 O   0  0  0  0  0  0  0  0  0  0  0  0
   10.5759    3.0359    0.0000 C   0  0  0  0  0  0  0  0  0  0  0  0
    9.4612    4.0396    0.0000 C   0  0  0  0  0  0  0  0  0  0  0  0
    4.3786    5.1199    0.0000 C   0  0  0  0  0  0  0  0  0  0  0  0
    2.9520    4.6564    0.0000 C   0  0  0  0  0  0  0  0  0  0  0  0
  1  2  1  0
  2  3  2  0
  3  4  1  0
  4  5  2  0
  5  6  1  0
  6  7  2  0
  7  8  1  0
  8  9  2  0
  9 10  1  0
 10 11  1  0
 11 12  1  0
 12 13  1  0
 13 14  1  0
 14 15  1  0
  8 16  1  0
 16 17  2  0
 17 18  1  0
 18 19  2  0
 19 20  1  0
 20 21  1  0
 21 22  2  0
 22 23  1  0
 23 24  2  0
 24 25  1  0
 25 26  1  0
 24 27  1  0
 27 28  2  0
 19 29  1  0
 29 30  2  0
  7  2  1  0
 10  6  1  0
 15 11  1  0
 30 16  1  0
 28 21  1  0
M  END
>  <Molecule>  (578) 
CHEMBL1976376

>  <Standard Type>  (578) 
Ki

>  <Standard Relation>  (578) 
>

>  <Standard Value>  (578) 
5011.87

>  <Standard Units>  (578) 
nM

>  <pChEMBL Value>  (578) 
nan

>  <Comment>  (578) 
inactive

>  <Compound Key>  (578) 
SID103904992

>  <Assay>  (578) 
CHEMBL1963742

>  <Assay Description>  (578) 
PUBCHEM_BIOASSAY: Navigating the Kinome. (Class of assay: other) Panel member name: JAK3

>  <BAO Format>  (578) 
assay format

>  <Target>  (578) 
CHEMBL2148

>  <Target Pref. Name>  (578) 
Tyrosine-protein kinase JAK3

>  <Target Organism>  (578) 
Homo sapiens

>  <Target Type>  (578) 
SINGLE PROTEIN

>  <Document>  (578) 
CHEMBL1201862

>  <Source>  (578) 
PubChem BioAssays

>  <Max Phase>  (578) 
0

>  <#Ro5 Violations>  (578) 
0

>  <Molecular Weight>  (578) 
402.45

>  <Ligand Efficiency BEI>  (578) 
nan

>  <Ligand Efficiency LE>  (578) 
nan

>  <Ligand Efficiency LLE>  (578) 
nan

>  <Ligand Efficiency SEI>  (578) 
nan

>  <ALogP>  (578) 
3.93

>  <Assay Organism>  (578) 
nan

>  <Assay Tissue ChEMBL ID>  (578) 
nan

>  <Assay Tissue Name>  (578) 
nan

>  <Assay Cell Type>  (578) 
nan

>  <Assay Subcellular Fraction>  (578) 
nan

>  <Organism Tax ID>  (578) 
9606

>  <BAO Format ID>  (578) 
BAO_0000019

>  <Published Type>  (578) 
nan

>  <Published Relation>  (578) 
nan

>  <Published Value>  (578) 
nan

>  <Published Units>  (578) 
nan

>  <Canonical Smiles>  (578) 
Nc1ncnc2c1c(cn2C3CCOC3)c4ccc(Oc5ccc(CO)cc5)cc4

>  <Data Validity Comment>  (578) 
nan

>  <Document Journal>  (578) 
nan

>  <Document Year>  (578) 
nan

>  <SRC ID>  (578) 
7

>  <UO Units>  (578) 
UO_0000065

>  <Potential Duplicate>  (578) 
False

>  <Class>  (578) 
0

$$$$

     RDKit          2D

 23 25  0  0  0  0  0  0  0  0999 V2000
   -2.0882   -8.4404    0.0000 C   0  0  0  0  0  0  0  0  0  0  0  0
   -2.6983   -7.0701    0.0000 C   0  0  0  0  0  0  0  0  0  0  0  0
   -1.9483   -5.7711    0.0000 N   0  0  0  0  0  0  0  0  0  0  0  0
   -2.9520   -4.6564    0.0000 C   0  0  0  0  0  0  0  0  0  0  0  0
   -2.6401   -3.1891    0.0000 C   0  0  0  0  0  0  0  0  0  0  0  0
   -1.2135   -2.7256    0.0000 C   0  0  0  0  0  0  0  0  0  0  0  0
    0.0000   -3.6073    0.0000 C   0  0  0  0  0  0  0  0  0  0  0  0
    0.0000   -5.1073    0.0000 O   0  0  0  0  0  0  0  0  0  0  0  0
    1.2135   -2.7256    0.0000 N   0  0  0  0  0  0  0  0  0  0  0  0
    0.7500   -1.2990    0.0000 C   0  0  0  0  0  0  0  0  0  0  0  0
    1.5000    0.0000    0.0000 C   0  0  0  0  0  0  0  0  0  0  0  0
    0.7500    1.2990    0.0000 C   0  0  0  0  0  0  0  0  0  0  0  0
   -0.7500    1.2990    0.0000 C   0  0  0  0  0  0  0  0  0  0  0  0
   -1.5000    0.0000    0.0000 C   0  0  0  0  0  0  0  0  0  0  0  0
   -0.7500   -1.2990    0.0000 C   0  0  0  0  0  0  0  0  0  0  0  0
   -4.3223   -5.2665    0.0000 C   0  0  0  0  0  0  0  0  0  0  0  0
   -5.6213   -4.5165    0.0000 C   0  0  0  0  0  0  0  0  0  0  0  0
   -4.1655   -6.7583    0.0000 C   0  0  0  0  0  0  0  0  0  0  0  0
   -5.2802   -7.7620    0.0000 C   0  0  0  0  0  0  0  0  0  0  0  0
   -6.7068   -7.2984    0.0000 C   0  0  0  0  0  0  0  0  0  0  0  0
   -7.8215   -8.3021    0.0000 C   0  0  0  0  0  0  0  0  0  0  0  0
   -7.5097   -9.7693    0.0000 O   0  0  0  0  0  0  0  0  0  0  0  0
   -9.2481   -7.8386    0.0000 O   0  0  0  0  0  0  0  0  0  0  0  0
  1  2  1  0
  2  3  1  0
  3  4  1  0
  4  5  1  0
  5  6  2  3
  6  7  1  0
  7  8  2  0
  7  9  1  0
  9 10  1  0
 10 11  2  0
 11 12  1  0
 12 13  2  0
 13 14  1  0
 14 15  2  0
  4 16  2  0
 16 17  1  0
 16 18  1  0
 18 19  1  0
 19 20  1  0
 20 21  1  0
 21 22  2  0
 21 23  1  0
 18  2  2  0
 15  6  1  0
 15 10  1  0
M  END
>  <Molecule>  (579) 
CHEMBL2007064

>  <Standard Type>  (579) 
Ki

>  <Standard Relation>  (579) 
=

>  <Standard Value>  (579) 
316.23

>  <Standard Units>  (579) 
nM

>  <pChEMBL Value>  (579) 
6.5

>  <Comment>  (579) 
active

>  <Compound Key>  (579) 
SID103905113

>  <Assay>  (579) 
CHEMBL1963742

>  <Assay Description>  (579) 
PUBCHEM_BIOASSAY: Navigating the Kinome. (Class of assay: other) Panel member name: JAK3

>  <BAO Format>  (579) 
assay format

>  <Target>  (579) 
CHEMBL2148

>  <Target Pref. Name>  (579) 
Tyrosine-protein kinase JAK3

>  <Target Organism>  (579) 
Homo sapiens

>  <Target Type>  (579) 
SINGLE PROTEIN

>  <Document>  (579) 
CHEMBL1201862

>  <Source>  (579) 
PubChem BioAssays

>  <Max Phase>  (579) 
0

>  <#Ro5 Violations>  (579) 
0

>  <Molecular Weight>  (579) 
310.35

>  <Ligand Efficiency BEI>  (579) 
nan

>  <Ligand Efficiency LE>  (579) 
nan

>  <Ligand Efficiency LLE>  (579) 
nan

>  <Ligand Efficiency SEI>  (579) 
nan

>  <ALogP>  (579) 
3.14

>  <Assay Organism>  (579) 
nan

>  <Assay Tissue ChEMBL ID>  (579) 
nan

>  <Assay Tissue Name>  (579) 
nan

>  <Assay Cell Type>  (579) 
nan

>  <Assay Subcellular Fraction>  (579) 
nan

>  <Organism Tax ID>  (579) 
9606

>  <BAO Format ID>  (579) 
BAO_0000019

>  <Published Type>  (579) 
nan

>  <Published Relation>  (579) 
nan

>  <Published Value>  (579) 
nan

>  <Published Units>  (579) 
nan

>  <Canonical Smiles>  (579) 
Cc1[nH]c(C=C2C(=O)Nc3ccccc23)c(C)c1CCC(=O)O

>  <Data Validity Comment>  (579) 
nan

>  <Document Journal>  (579) 
nan

>  <Document Year>  (579) 
nan

>  <SRC ID>  (579) 
7

>  <UO Units>  (579) 
UO_0000065

>  <Potential Duplicate>  (579) 
False

>  <Class>  (579) 
1

$$$$

     RDKit          2D

 27 30  0  0  0  0  0  0  0  0999 V2000
   -6.0000   -5.1962    0.0000 O   0  0  0  0  0  0  0  0  0  0  0  0
   -5.2500   -3.8971    0.0000 C   0  0  0  0  0  0  0  0  0  0  0  0
   -3.7500   -3.8971    0.0000 C   0  0  0  0  0  0  0  0  0  0  0  0
   -3.0000   -2.5981    0.0000 C   0  0  0  0  0  0  0  0  0  0  0  0
   -3.7500   -1.2990    0.0000 C   0  0  0  0  0  0  0  0  0  0  0  0
   -3.0000    0.0000    0.0000 N   0  0  0  0  0  0  0  0  0  0  0  0
   -3.7500    1.2990    0.0000 C   0  0  0  0  0  0  0  0  0  0  0  0
   -5.2418    1.4558    0.0000 N   0  0  0  0  0  0  0  0  0  0  0  0
   -5.5537    2.9231    0.0000 N   0  0  0  0  0  0  0  0  0  0  0  0
   -4.2546    3.6731    0.0000 C   0  0  0  0  0  0  0  0  0  0  0  0
   -4.0978    5.1648    0.0000 C   0  0  0  0  0  0  0  0  0  0  0  0
   -2.7275    5.7749    0.0000 C   0  0  0  0  0  0  0  0  0  0  0  0
   -2.5707    7.2667    0.0000 C   0  0  0  0  0  0  0  0  0  0  0  0
   -3.7842    8.1484    0.0000 C   0  0  0  0  0  0  0  0  0  0  0  0
   -3.6274    9.6402    0.0000 O   0  0  0  0  0  0  0  0  0  0  0  0
   -5.1546    7.5383    0.0000 C   0  0  0  0  0  0  0  0  0  0  0  0
   -5.3113    6.0465    0.0000 C   0  0  0  0  0  0  0  0  0  0  0  0
   -3.1399    2.6694    0.0000 C   0  0  0  0  0  0  0  0  0  0  0  0
   -1.6727    2.9812    0.0000 C   0  0  0  0  0  0  0  0  0  0  0  0
   -0.6690    1.8665    0.0000 C   0  0  0  0  0  0  0  0  0  0  0  0
    0.7982    2.1784    0.0000 C   0  0  0  0  0  0  0  0  0  0  0  0
    1.2618    3.6050    0.0000 C   0  0  0  0  0  0  0  0  0  0  0  0
    2.7290    3.9168    0.0000 O   0  0  0  0  0  0  0  0  0  0  0  0
    0.2581    4.7197    0.0000 C   0  0  0  0  0  0  0  0  0  0  0  0
   -1.2091    4.4078    0.0000 C   0  0  0  0  0  0  0  0  0  0  0  0
   -5.2500   -1.2990    0.0000 C   0  0  0  0  0  0  0  0  0  0  0  0
   -6.0000   -2.5981    0.0000 C   0  0  0  0  0  0  0  0  0  0  0  0
  1  2  1  0
  2  3  2  0
  3  4  1  0
  4  5  2  0
  5  6  1  0
  6  7  1  0
  7  8  1  0
  8  9  1  0
  9 10  2  0
 10 11  1  0
 11 12  2  0
 12 13  1  0
 13 14  2  0
 14 15  1  0
 14 16  1  0
 16 17  2  0
 10 18  1  0
 18 19  1  0
 19 20  2  0
 20 21  1  0
 21 22  2  0
 22 23  1  0
 22 24  1  0
 24 25  2  0
  5 26  1  0
 26 27  2  0
 27  2  1  0
 18  7  2  0
 17 11  1  0
 25 19  1  0
M  END
>  <Molecule>  (580) 
CHEMBL1969042

>  <Standard Type>  (580) 
Ki

>  <Standard Relation>  (580) 
>

>  <Standard Value>  (580) 
1584.89

>  <Standard Units>  (580) 
nM

>  <pChEMBL Value>  (580) 
nan

>  <Comment>  (580) 
inactive

>  <Compound Key>  (580) 
SID103905578

>  <Assay>  (580) 
CHEMBL1963742

>  <Assay Description>  (580) 
PUBCHEM_BIOASSAY: Navigating the Kinome. (Class of assay: other) Panel member name: JAK3

>  <BAO Format>  (580) 
assay format

>  <Target>  (580) 
CHEMBL2148

>  <Target Pref. Name>  (580) 
Tyrosine-protein kinase JAK3

>  <Target Organism>  (580) 
Homo sapiens

>  <Target Type>  (580) 
SINGLE PROTEIN

>  <Document>  (580) 
CHEMBL1201862

>  <Source>  (580) 
PubChem BioAssays

>  <Max Phase>  (580) 
0

>  <#Ro5 Violations>  (580) 
0

>  <Molecular Weight>  (580) 
359.39

>  <Ligand Efficiency BEI>  (580) 
nan

>  <Ligand Efficiency LE>  (580) 
nan

>  <Ligand Efficiency LLE>  (580) 
nan

>  <Ligand Efficiency SEI>  (580) 
nan

>  <ALogP>  (580) 
4.6

>  <Assay Organism>  (580) 
nan

>  <Assay Tissue ChEMBL ID>  (580) 
nan

>  <Assay Tissue Name>  (580) 
nan

>  <Assay Cell Type>  (580) 
nan

>  <Assay Subcellular Fraction>  (580) 
nan

>  <Organism Tax ID>  (580) 
9606

>  <BAO Format ID>  (580) 
BAO_0000019

>  <Published Type>  (580) 
nan

>  <Published Relation>  (580) 
nan

>  <Published Value>  (580) 
nan

>  <Published Units>  (580) 
nan

>  <Canonical Smiles>  (580) 
Oc1ccc(Nc2[nH]nc(c3ccc(O)cc3)c2c4ccc(O)cc4)cc1

>  <Data Validity Comment>  (580) 
nan

>  <Document Journal>  (580) 
nan

>  <Document Year>  (580) 
nan

>  <SRC ID>  (580) 
7

>  <UO Units>  (580) 
UO_0000065

>  <Potential Duplicate>  (580) 
False

>  <Class>  (580) 
0

$$$$

     RDKit          2D

 39 44  0  0  0  0  0  0  0  0999 V2000
  -12.0025   -3.4994    0.0000 C   0  0  0  0  0  0  0  0  0  0  0  0
  -10.5759   -3.0359    0.0000 O   0  0  0  0  0  0  0  0  0  0  0  0
   -9.4612   -4.0396    0.0000 C   0  0  0  0  0  0  0  0  0  0  0  0
   -8.0346   -3.5760    0.0000 C   0  0  0  0  0  0  0  0  0  0  0  0
   -6.9199   -4.5797    0.0000 O   0  0  0  0  0  0  0  0  0  0  0  0
   -5.4933   -4.1162    0.0000 C   0  0  0  0  0  0  0  0  0  0  0  0
   -5.1814   -2.6490    0.0000 C   0  0  0  0  0  0  0  0  0  0  0  0
   -3.7548   -2.1855    0.0000 C   0  0  0  0  0  0  0  0  0  0  0  0
   -2.6401   -3.1891    0.0000 C   0  0  0  0  0  0  0  0  0  0  0  0
   -2.9520   -4.6564    0.0000 C   0  0  0  0  0  0  0  0  0  0  0  0
   -4.3786   -5.1199    0.0000 C   0  0  0  0  0  0  0  0  0  0  0  0
   -1.2135   -2.7256    0.0000 N   0  0  0  0  0  0  0  0  0  0  0  0
    0.0000   -3.6073    0.0000 N   0  0  0  0  0  0  0  0  0  0  0  0
    1.2135   -2.7256    0.0000 C   0  0  0  0  0  0  0  0  0  0  0  0
    2.6401   -3.1891    0.0000 C   0  0  0  0  0  0  0  0  0  0  0  0
    2.9520   -4.6564    0.0000 C   0  0  0  0  0  0  0  0  0  0  0  0
    4.3786   -5.1199    0.0000 C   0  0  0  0  0  0  0  0  0  0  0  0
    5.4933   -4.1162    0.0000 C   0  0  0  0  0  0  0  0  0  0  0  0
    6.9199   -4.5797    0.0000 N   0  0  0  0  0  0  0  0  0  0  0  0
    7.2317   -6.0469    0.0000 C   0  0  0  0  0  0  0  0  0  0  0  0
    8.6021   -6.6571    0.0000 O   0  0  0  0  0  0  0  0  0  0  0  0
    8.4453   -8.1488    0.0000 C   0  0  0  0  0  0  0  0  0  0  0  0
    9.4490   -9.2636    0.0000 C   0  0  0  0  0  0  0  0  0  0  0  0
   10.9162   -8.9517    0.0000 Cl  0  0  0  0  0  0  0  0  0  0  0  0
    8.9854  -10.6901    0.0000 C   0  0  0  0  0  0  0  0  0  0  0  0
    7.5182  -11.0020    0.0000 C   0  0  0  0  0  0  0  0  0  0  0  0
    7.0547  -12.4286    0.0000 C   0  0  0  0  0  0  0  0  0  0  0  0
    6.5145   -9.8873    0.0000 C   0  0  0  0  0  0  0  0  0  0  0  0
    6.9780   -8.4607    0.0000 C   0  0  0  0  0  0  0  0  0  0  0  0
    6.2280   -7.1617    0.0000 N   0  0  0  0  0  0  0  0  0  0  0  0
    5.1814   -2.6490    0.0000 C   0  0  0  0  0  0  0  0  0  0  0  0
    3.7548   -2.1855    0.0000 C   0  0  0  0  0  0  0  0  0  0  0  0
    0.7500   -1.2990    0.0000 C   0  0  0  0  0  0  0  0  0  0  0  0
    1.5000    0.0000    0.0000 C   0  0  0  0  0  0  0  0  0  0  0  0
    3.0000    0.0000    0.0000 N   0  0  0  0  0  0  0  0  0  0  0  0
    0.7500    1.2990    0.0000 N   0  0  0  0  0  0  0  0  0  0  0  0
   -0.7500    1.2990    0.0000 C   0  0  0  0  0  0  0  0  0  0  0  0
   -1.5000    0.0000    0.0000 N   0  0  0  0  0  0  0  0  0  0  0  0
   -0.7500   -1.2990    0.0000 C   0  0  0  0  0  0  0  0  0  0  0  0
  1  2  1  0
  2  3  1  0
  3  4  1  0
  4  5  1  0
  5  6  1  0
  6  7  1  0
  7  8  1  0
  8  9  1  0
  9 10  1  0
 10 11  1  0
  9 12  1  0
 12 13  1  0
 13 14  2  0
 14 15  1  0
 15 16  2  0
 16 17  1  0
 17 18  2  0
 18 19  1  0
 19 20  1  0
 20 21  1  0
 21 22  1  0
 22 23  2  0
 23 24  1  0
 23 25  1  0
 25 26  2  0
 26 27  1  0
 26 28  1  0
 28 29  2  0
 29 30  1  0
 18 31  1  0
 31 32  2  0
 14 33  1  0
 33 34  2  0
 34 35  1  0
 34 36  1  0
 36 37  2  0
 37 38  1  0
 38 39  2  0
 11  6  1  0
 39 12  1  0
 32 15  1  0
 30 20  2  0
 29 22  1  0
 39 33  1  0
M  END
>  <Molecule>  (581) 
CHEMBL1987054

>  <Standard Type>  (581) 
Ki

>  <Standard Relation>  (581) 
=

>  <Standard Value>  (581) 
63.1

>  <Standard Units>  (581) 
nM

>  <pChEMBL Value>  (581) 
7.2

>  <Comment>  (581) 
active

>  <Compound Key>  (581) 
SID103904785

>  <Assay>  (581) 
CHEMBL1963742

>  <Assay Description>  (581) 
PUBCHEM_BIOASSAY: Navigating the Kinome. (Class of assay: other) Panel member name: JAK3

>  <BAO Format>  (581) 
assay format

>  <Target>  (581) 
CHEMBL2148

>  <Target Pref. Name>  (581) 
Tyrosine-protein kinase JAK3

>  <Target Organism>  (581) 
Homo sapiens

>  <Target Type>  (581) 
SINGLE PROTEIN

>  <Document>  (581) 
CHEMBL1201862

>  <Source>  (581) 
PubChem BioAssays

>  <Max Phase>  (581) 
0

>  <#Ro5 Violations>  (581) 
2

>  <Molecular Weight>  (581) 
548.05

>  <Ligand Efficiency BEI>  (581) 
nan

>  <Ligand Efficiency LE>  (581) 
nan

>  <Ligand Efficiency LLE>  (581) 
nan

>  <Ligand Efficiency SEI>  (581) 
nan

>  <ALogP>  (581) 
6.07

>  <Assay Organism>  (581) 
nan

>  <Assay Tissue ChEMBL ID>  (581) 
nan

>  <Assay Tissue Name>  (581) 
nan

>  <Assay Cell Type>  (581) 
nan

>  <Assay Subcellular Fraction>  (581) 
nan

>  <Organism Tax ID>  (581) 
9606

>  <BAO Format ID>  (581) 
BAO_0000019

>  <Published Type>  (581) 
nan

>  <Published Relation>  (581) 
nan

>  <Published Value>  (581) 
nan

>  <Published Units>  (581) 
nan

>  <Canonical Smiles>  (581) 
COCCOC1CCC(CC1)n2nc(c3ccc(Nc4oc5c(Cl)cc(C)cc5n4)cc3)c6c(N)ncnc26

>  <Data Validity Comment>  (581) 
nan

>  <Document Journal>  (581) 
nan

>  <Document Year>  (581) 
nan

>  <SRC ID>  (581) 
7

>  <UO Units>  (581) 
UO_0000065

>  <Potential Duplicate>  (581) 
False

>  <Class>  (581) 
1

$$$$

     RDKit          2D

 26 30  0  0  0  0  0  0  0  0999 V2000
   -8.8573   -9.4952    0.0000 O   0  0  0  0  0  0  0  0  0  0  0  0
   -8.8573   -7.9952    0.0000 C   0  0  0  0  0  0  0  0  0  0  0  0
  -10.1563   -7.2452    0.0000 N   0  0  0  0  0  0  0  0  0  0  0  0
  -10.1563   -5.7452    0.0000 C   0  0  0  0  0  0  0  0  0  0  0  0
   -8.8573   -4.9952    0.0000 C   0  0  0  0  0  0  0  0  0  0  0  0
   -7.5583   -5.7452    0.0000 C   0  0  0  0  0  0  0  0  0  0  0  0
   -6.1317   -5.2817    0.0000 N   0  0  0  0  0  0  0  0  0  0  0  0
   -5.2500   -6.4952    0.0000 C   0  0  0  0  0  0  0  0  0  0  0  0
   -6.1317   -7.7087    0.0000 C   0  0  0  0  0  0  0  0  0  0  0  0
   -7.5583   -7.2452    0.0000 C   0  0  0  0  0  0  0  0  0  0  0  0
   -3.7500   -6.4952    0.0000 C   0  0  0  0  0  0  0  0  0  0  0  0
   -3.0000   -7.7942    0.0000 C   0  0  0  0  0  0  0  0  0  0  0  0
   -1.5000   -7.7942    0.0000 C   0  0  0  0  0  0  0  0  0  0  0  0
   -0.7500   -6.4952    0.0000 N   0  0  0  0  0  0  0  0  0  0  0  0
   -1.5000   -5.1962    0.0000 C   0  0  0  0  0  0  0  0  0  0  0  0
   -3.0000   -5.1962    0.0000 C   0  0  0  0  0  0  0  0  0  0  0  0
   -0.7500   -3.8971    0.0000 C   0  0  0  0  0  0  0  0  0  0  0  0
    0.7500   -3.8971    0.0000 C   0  0  0  0  0  0  0  0  0  0  0  0
    1.5000   -2.5981    0.0000 N   0  0  0  0  0  0  0  0  0  0  0  0
    0.7500   -1.2990    0.0000 C   0  0  0  0  0  0  0  0  0  0  0  0
    1.5000    0.0000    0.0000 C   0  0  0  0  0  0  0  0  0  0  0  0
    0.7500    1.2990    0.0000 C   0  0  0  0  0  0  0  0  0  0  0  0
   -0.7500    1.2990    0.0000 C   0  0  0  0  0  0  0  0  0  0  0  0
   -1.5000    0.0000    0.0000 C   0  0  0  0  0  0  0  0  0  0  0  0
   -0.7500   -1.2990    0.0000 C   0  0  0  0  0  0  0  0  0  0  0  0
   -1.5000   -2.5981    0.0000 C   0  0  0  0  0  0  0  0  0  0  0  0
  1  2  2  0
  2  3  1  0
  3  4  1  0
  4  5  1  0
  5  6  1  0
  6  7  1  0
  7  8  1  0
  8  9  2  0
  9 10  1  0
  8 11  1  0
 11 12  2  0
 12 13  1  0
 13 14  2  0
 14 15  1  0
 15 16  2  0
 15 17  1  0
 17 18  2  0
 18 19  1  0
 19 20  2  0
 20 21  1  0
 21 22  2  0
 22 23  1  0
 23 24  2  0
 24 25  1  0
 25 26  2  0
 10  2  1  0
 10  6  2  0
 16 11  1  0
 26 17  1  0
 25 20  1  0
M  END
>  <Molecule>  (582) 
CHEMBL226403

>  <Standard Type>  (582) 
Ki

>  <Standard Relation>  (582) 
>

>  <Standard Value>  (582) 
1584.89

>  <Standard Units>  (582) 
nM

>  <pChEMBL Value>  (582) 
nan

>  <Comment>  (582) 
inactive

>  <Compound Key>  (582) 
SID103905260

>  <Assay>  (582) 
CHEMBL1963742

>  <Assay Description>  (582) 
PUBCHEM_BIOASSAY: Navigating the Kinome. (Class of assay: other) Panel member name: JAK3

>  <BAO Format>  (582) 
assay format

>  <Target>  (582) 
CHEMBL2148

>  <Target Pref. Name>  (582) 
Tyrosine-protein kinase JAK3

>  <Target Organism>  (582) 
Homo sapiens

>  <Target Type>  (582) 
SINGLE PROTEIN

>  <Document>  (582) 
CHEMBL1201862

>  <Source>  (582) 
PubChem BioAssays

>  <Max Phase>  (582) 
0

>  <#Ro5 Violations>  (582) 
0

>  <Molecular Weight>  (582) 
340.39

>  <Ligand Efficiency BEI>  (582) 
nan

>  <Ligand Efficiency LE>  (582) 
nan

>  <Ligand Efficiency LLE>  (582) 
nan

>  <Ligand Efficiency SEI>  (582) 
nan

>  <ALogP>  (582) 
3.58

>  <Assay Organism>  (582) 
nan

>  <Assay Tissue ChEMBL ID>  (582) 
nan

>  <Assay Tissue Name>  (582) 
nan

>  <Assay Cell Type>  (582) 
nan

>  <Assay Subcellular Fraction>  (582) 
nan

>  <Organism Tax ID>  (582) 
9606

>  <BAO Format ID>  (582) 
BAO_0000019

>  <Published Type>  (582) 
nan

>  <Published Relation>  (582) 
nan

>  <Published Value>  (582) 
nan

>  <Published Units>  (582) 
nan

>  <Canonical Smiles>  (582) 
O=C1NCCc2[nH]c(cc12)c3ccnc(c3)c4cnc5ccccc5c4

>  <Data Validity Comment>  (582) 
nan

>  <Document Journal>  (582) 
nan

>  <Document Year>  (582) 
nan

>  <SRC ID>  (582) 
7

>  <UO Units>  (582) 
UO_0000065

>  <Potential Duplicate>  (582) 
False

>  <Class>  (582) 
0

$$$$

     RDKit          2D

 30 33  0  0  0  0  0  0  0  0999 V2000
   -5.2500   -6.4952    0.0000 C   0  0  0  0  0  0  0  0  0  0  0  0
   -3.7500   -6.4952    0.0000 C   0  0  0  0  0  0  0  0  0  0  0  0
   -3.0000   -5.1962    0.0000 O   0  0  0  0  0  0  0  0  0  0  0  0
   -1.5000   -5.1962    0.0000 C   0  0  0  0  0  0  0  0  0  0  0  0
   -0.7500   -6.4952    0.0000 O   0  0  0  0  0  0  0  0  0  0  0  0
   -0.7500   -3.8971    0.0000 C   0  0  0  0  0  0  0  0  0  0  0  0
    0.7500   -3.8971    0.0000 C   0  0  0  0  0  0  0  0  0  0  0  0
    1.5000   -2.5981    0.0000 N   0  0  0  0  0  0  0  0  0  0  0  0
    3.0000   -2.5981    0.0000 C   0  0  0  0  0  0  0  0  0  0  0  0
    3.7500   -3.8971    0.0000 C   0  0  0  0  0  0  0  0  0  0  0  0
    5.2500   -3.8971    0.0000 C   0  0  0  0  0  0  0  0  0  0  0  0
    6.0000   -2.5981    0.0000 C   0  0  0  0  0  0  0  0  0  0  0  0
    7.5000   -2.5981    0.0000 O   0  0  0  0  0  0  0  0  0  0  0  0
    5.2500   -1.2990    0.0000 C   0  0  0  0  0  0  0  0  0  0  0  0
    3.7500   -1.2990    0.0000 C   0  0  0  0  0  0  0  0  0  0  0  0
    3.0000    0.0000    0.0000 C   0  0  0  0  0  0  0  0  0  0  0  0
    0.7500   -1.2990    0.0000 C   0  0  0  0  0  0  0  0  0  0  0  0
    1.5000    0.0000    0.0000 C   0  0  0  0  0  0  0  0  0  0  0  0
    0.7500    1.2990    0.0000 C   0  0  0  0  0  0  0  0  0  0  0  0
   -0.7500    1.2990    0.0000 C   0  0  0  0  0  0  0  0  0  0  0  0
   -1.5000    0.0000    0.0000 C   0  0  0  0  0  0  0  0  0  0  0  0
   -0.7500   -1.2990    0.0000 C   0  0  0  0  0  0  0  0  0  0  0  0
   -1.5000   -2.5981    0.0000 C   0  0  0  0  0  0  0  0  0  0  0  0
   -3.0000   -2.5981    0.0000 O   0  0  0  0  0  0  0  0  0  0  0  0
    1.5000    2.5981    0.0000 C   0  0  0  0  0  0  0  0  0  0  0  0
    3.0000    2.5981    0.0000 C   0  0  0  0  0  0  0  0  0  0  0  0
    3.7500    3.8971    0.0000 C   0  0  0  0  0  0  0  0  0  0  0  0
    3.0000    5.1962    0.0000 N   0  0  0  0  0  0  0  0  0  0  0  0
    1.5000    5.1962    0.0000 C   0  0  0  0  0  0  0  0  0  0  0  0
    0.7500    3.8971    0.0000 C   0  0  0  0  0  0  0  0  0  0  0  0
  1  2  1  0
  2  3  1  0
  3  4  1  0
  4  5  2  0
  4  6  1  0
  6  7  2  0
  7  8  1  0
  8  9  1  0
  9 10  2  0
 10 11  1  0
 11 12  2  0
 12 13  1  0
 12 14  1  0
 14 15  2  0
 15 16  1  0
  8 17  1  0
 17 18  2  0
 18 19  1  0
 19 20  2  0
 20 21  1  0
 21 22  2  0
 22 23  1  0
 23 24  2  0
 19 25  1  0
 25 26  2  0
 26 27  1  0
 27 28  2  0
 28 29  1  0
 29 30  2  0
 23  6  1  0
 15  9  1  0
 22 17  1  0
 30 25  1  0
M  END
>  <Molecule>  (583) 
CHEMBL1996780

>  <Standard Type>  (583) 
Ki

>  <Standard Relation>  (583) 
>

>  <Standard Value>  (583) 
1584.89

>  <Standard Units>  (583) 
nM

>  <pChEMBL Value>  (583) 
nan

>  <Comment>  (583) 
inactive

>  <Compound Key>  (583) 
SID103905358

>  <Assay>  (583) 
CHEMBL1963742

>  <Assay Description>  (583) 
PUBCHEM_BIOASSAY: Navigating the Kinome. (Class of assay: other) Panel member name: JAK3

>  <BAO Format>  (583) 
assay format

>  <Target>  (583) 
CHEMBL2148

>  <Target Pref. Name>  (583) 
Tyrosine-protein kinase JAK3

>  <Target Organism>  (583) 
Homo sapiens

>  <Target Type>  (583) 
SINGLE PROTEIN

>  <Document>  (583) 
CHEMBL1201862

>  <Source>  (583) 
PubChem BioAssays

>  <Max Phase>  (583) 
0

>  <#Ro5 Violations>  (583) 
0

>  <Molecular Weight>  (583) 
400.43

>  <Ligand Efficiency BEI>  (583) 
nan

>  <Ligand Efficiency LE>  (583) 
nan

>  <Ligand Efficiency LLE>  (583) 
nan

>  <Ligand Efficiency SEI>  (583) 
nan

>  <ALogP>  (583) 
4.24

>  <Assay Organism>  (583) 
nan

>  <Assay Tissue ChEMBL ID>  (583) 
nan

>  <Assay Tissue Name>  (583) 
nan

>  <Assay Cell Type>  (583) 
nan

>  <Assay Subcellular Fraction>  (583) 
nan

>  <Organism Tax ID>  (583) 
9606

>  <BAO Format ID>  (583) 
BAO_0000019

>  <Published Type>  (583) 
nan

>  <Published Relation>  (583) 
nan

>  <Published Value>  (583) 
nan

>  <Published Units>  (583) 
nan

>  <Canonical Smiles>  (583) 
CCOC(=O)C1=CN(c2ccc(O)cc2C)c3cc(ccc3C1=O)c4ccncc4

>  <Data Validity Comment>  (583) 
nan

>  <Document Journal>  (583) 
nan

>  <Document Year>  (583) 
nan

>  <SRC ID>  (583) 
7

>  <UO Units>  (583) 
UO_0000065

>  <Potential Duplicate>  (583) 
False

>  <Class>  (583) 
0

$$$$

     RDKit          2D

 33 38  0  0  0  0  0  0  0  0999 V2000
   -1.5000   -7.7942    0.0000 C   0  0  0  0  0  0  0  0  0  0  0  0
   -0.7500   -6.4952    0.0000 N   0  0  0  0  0  0  0  0  0  0  0  0
   -1.5000   -5.1962    0.0000 C   0  0  0  0  0  0  0  0  0  0  0  0
   -0.7500   -3.8971    0.0000 C   0  0  0  0  0  0  0  0  0  0  0  0
    0.7500   -3.8971    0.0000 N   0  0  0  0  0  0  0  0  0  0  0  0
    1.5000   -2.5981    0.0000 C   0  0  0  0  0  0  0  0  0  0  0  0
    0.7500   -1.2990    0.0000 C   0  0  0  0  0  0  0  0  0  0  0  0
    1.5000    0.0000    0.0000 C   0  0  0  0  0  0  0  0  0  0  0  0
    0.7500    1.2990    0.0000 C   0  0  0  0  0  0  0  0  0  0  0  0
   -0.7500    1.2990    0.0000 C   0  0  0  0  0  0  0  0  0  0  0  0
   -1.5000    0.0000    0.0000 C   0  0  0  0  0  0  0  0  0  0  0  0
   -2.9672    0.3119    0.0000 C   0  0  0  0  0  0  0  0  0  0  0  0
   -3.1240    1.8037    0.0000 C   0  0  0  0  0  0  0  0  0  0  0  0
   -4.1277    2.9184    0.0000 C   0  0  0  0  0  0  0  0  0  0  0  0
   -3.3777    4.2174    0.0000 N   0  0  0  0  0  0  0  0  0  0  0  0
   -1.9105    3.9055    0.0000 N   0  0  0  0  0  0  0  0  0  0  0  0
   -1.7537    2.4138    0.0000 C   0  0  0  0  0  0  0  0  0  0  0  0
   -5.6195    2.7616    0.0000 C   0  0  0  0  0  0  0  0  0  0  0  0
   -6.3695    1.4625    0.0000 C   0  0  0  0  0  0  0  0  0  0  0  0
   -7.8367    1.7744    0.0000 S   0  0  0  0  0  0  0  0  0  0  0  0
   -7.9935    3.2662    0.0000 C   0  0  0  0  0  0  0  0  0  0  0  0
   -6.6232    3.8763    0.0000 C   0  0  0  0  0  0  0  0  0  0  0  0
   -9.2925    4.0162    0.0000 C   0  0  0  0  0  0  0  0  0  0  0  0
  -10.5916    4.7662    0.0000 C   0  0  0  0  0  0  0  0  0  0  0  0
  -11.8906    5.5162    0.0000 C   0  0  0  0  0  0  0  0  0  0  0  0
  -11.8906    7.0162    0.0000 O   0  0  0  0  0  0  0  0  0  0  0  0
  -13.1897    7.7662    0.0000 C   0  0  0  0  0  0  0  0  0  0  0  0
  -13.1897    9.2662    0.0000 C   0  0  0  0  0  0  0  0  0  0  0  0
  -13.9397   10.5652    0.0000 C   0  0  0  0  0  0  0  0  0  0  0  0
  -12.4397   10.5652    0.0000 C   0  0  0  0  0  0  0  0  0  0  0  0
   -0.7500   -1.2990    0.0000 C   0  0  0  0  0  0  0  0  0  0  0  0
    1.5000   -5.1962    0.0000 C   0  0  0  0  0  0  0  0  0  0  0  0
    0.7500   -6.4952    0.0000 C   0  0  0  0  0  0  0  0  0  0  0  0
  1  2  1  0
  2  3  1  0
  3  4  1  0
  4  5  1  0
  5  6  1  0
  6  7  1  0
  7  8  2  0
  8  9  1  0
  9 10  2  0
 10 11  1  0
 11 12  1  0
 12 13  1  0
 13 14  1  0
 14 15  2  0
 15 16  1  0
 16 17  1  0
 14 18  1  0
 18 19  2  0
 19 20  1  0
 20 21  1  0
 21 22  2  0
 21 23  1  0
 23 24  3  0
 24 25  1  0
 25 26  1  0
 26 27  1  0
 27 28  1  0
 28 29  1  0
 29 30  1  0
 11 31  2  0
  5 32  1  0
 32 33  1  0
 33  2  1  0
 31  7  1  0
 17 10  1  0
 17 13  2  0
 22 18  1  0
 30 28  1  0
M  END
>  <Molecule>  (584) 
CHEMBL2002446

>  <Standard Type>  (584) 
Ki

>  <Standard Relation>  (584) 
>

>  <Standard Value>  (584) 
1584.89

>  <Standard Units>  (584) 
nM

>  <pChEMBL Value>  (584) 
nan

>  <Comment>  (584) 
inactive

>  <Compound Key>  (584) 
SID103904811

>  <Assay>  (584) 
CHEMBL1963742

>  <Assay Description>  (584) 
PUBCHEM_BIOASSAY: Navigating the Kinome. (Class of assay: other) Panel member name: JAK3

>  <BAO Format>  (584) 
assay format

>  <Target>  (584) 
CHEMBL2148

>  <Target Pref. Name>  (584) 
Tyrosine-protein kinase JAK3

>  <Target Organism>  (584) 
Homo sapiens

>  <Target Type>  (584) 
SINGLE PROTEIN

>  <Document>  (584) 
CHEMBL1201862

>  <Source>  (584) 
PubChem BioAssays

>  <Max Phase>  (584) 
0

>  <#Ro5 Violations>  (584) 
0

>  <Molecular Weight>  (584) 
458.63

>  <Ligand Efficiency BEI>  (584) 
nan

>  <Ligand Efficiency LE>  (584) 
nan

>  <Ligand Efficiency LLE>  (584) 
nan

>  <Ligand Efficiency SEI>  (584) 
nan

>  <ALogP>  (584) 
4.23

>  <Assay Organism>  (584) 
nan

>  <Assay Tissue ChEMBL ID>  (584) 
nan

>  <Assay Tissue Name>  (584) 
nan

>  <Assay Cell Type>  (584) 
nan

>  <Assay Subcellular Fraction>  (584) 
nan

>  <Organism Tax ID>  (584) 
9606

>  <BAO Format ID>  (584) 
BAO_0000019

>  <Published Type>  (584) 
nan

>  <Published Relation>  (584) 
nan

>  <Published Value>  (584) 
nan

>  <Published Units>  (584) 
nan

>  <Canonical Smiles>  (584) 
CN1CCN(Cc2ccc3c(Cc4c(n[nH]c34)c5csc(c5)C#CCOCC6CC6)c2)CC1

>  <Data Validity Comment>  (584) 
nan

>  <Document Journal>  (584) 
nan

>  <Document Year>  (584) 
nan

>  <SRC ID>  (584) 
7

>  <UO Units>  (584) 
UO_0000065

>  <Potential Duplicate>  (584) 
False

>  <Class>  (584) 
0

$$$$

     RDKit          2D

 38 41  0  0  0  0  0  0  0  0999 V2000
   -7.8396   -9.2187    0.0000 C   0  0  0  0  0  0  0  0  0  0  0  0
   -6.3478   -9.0619    0.0000 C   0  0  0  0  0  0  0  0  0  0  0  0
   -4.8560   -8.9052    0.0000 C   0  0  0  0  0  0  0  0  0  0  0  0
   -6.1910  -10.5537    0.0000 C   0  0  0  0  0  0  0  0  0  0  0  0
   -6.5046   -7.5702    0.0000 C   0  0  0  0  0  0  0  0  0  0  0  0
   -5.3899   -6.5665    0.0000 C   0  0  0  0  0  0  0  0  0  0  0  0
   -6.0000   -5.1962    0.0000 C   0  0  0  0  0  0  0  0  0  0  0  0
   -5.2500   -3.8971    0.0000 N   0  0  0  0  0  0  0  0  0  0  0  0
   -3.7500   -3.8971    0.0000 C   0  0  0  0  0  0  0  0  0  0  0  0
   -3.0000   -5.1962    0.0000 O   0  0  0  0  0  0  0  0  0  0  0  0
   -3.0000   -2.5981    0.0000 N   0  0  0  0  0  0  0  0  0  0  0  0
   -1.5000   -2.5981    0.0000 C   0  0  0  0  0  0  0  0  0  0  0  0
   -0.7500   -3.8971    0.0000 C   0  0  0  0  0  0  0  0  0  0  0  0
    0.7500   -3.8971    0.0000 C   0  0  0  0  0  0  0  0  0  0  0  0
    1.5000   -2.5981    0.0000 C   0  0  0  0  0  0  0  0  0  0  0  0
    0.7500   -1.2990    0.0000 C   0  0  0  0  0  0  0  0  0  0  0  0
    1.5000    0.0000    0.0000 C   0  0  0  0  0  0  0  0  0  0  0  0
    0.7500    1.2990    0.0000 C   0  0  0  0  0  0  0  0  0  0  0  0
   -0.7500    1.2990    0.0000 C   0  0  0  0  0  0  0  0  0  0  0  0
   -1.5000    0.0000    0.0000 C   0  0  0  0  0  0  0  0  0  0  0  0
   -0.7500   -1.2990    0.0000 C   0  0  0  0  0  0  0  0  0  0  0  0
   -7.4918   -5.3529    0.0000 N   0  0  0  0  0  0  0  0  0  0  0  0
   -7.8037   -6.8202    0.0000 N   0  0  0  0  0  0  0  0  0  0  0  0
   -8.4955   -4.2382    0.0000 C   0  0  0  0  0  0  0  0  0  0  0  0
   -8.0320   -2.8116    0.0000 C   0  0  0  0  0  0  0  0  0  0  0  0
   -9.0356   -1.6969    0.0000 C   0  0  0  0  0  0  0  0  0  0  0  0
  -10.5029   -2.0088    0.0000 C   0  0  0  0  0  0  0  0  0  0  0  0
  -10.9664   -3.4354    0.0000 C   0  0  0  0  0  0  0  0  0  0  0  0
   -9.9627   -4.5501    0.0000 C   0  0  0  0  0  0  0  0  0  0  0  0
  -12.4336   -3.7472    0.0000 C   0  0  0  0  0  0  0  0  0  0  0  0
  -12.8971   -5.1738    0.0000 O   0  0  0  0  0  0  0  0  0  0  0  0
  -13.4373   -2.6325    0.0000 N   0  0  0  0  0  0  0  0  0  0  0  0
  -14.9045   -2.9444    0.0000 C   0  0  0  0  0  0  0  0  0  0  0  0
  -15.9082   -1.8297    0.0000 C   0  0  0  0  0  0  0  0  0  0  0  0
  -17.3755   -2.1415    0.0000 O   0  0  0  0  0  0  0  0  0  0  0  0
  -18.3791   -1.0268    0.0000 C   0  0  0  0  0  0  0  0  0  0  0  0
  -19.8464   -1.3387    0.0000 C   0  0  0  0  0  0  0  0  0  0  0  0
  -20.8501   -0.2240    0.0000 O   0  0  0  0  0  0  0  0  0  0  0  0
  1  2  1  0
  2  3  1  0
  2  4  1  0
  2  5  1  0
  5  6  1  0
  6  7  2  0
  7  8  1  0
  8  9  1  0
  9 10  2  0
  9 11  1  0
 11 12  1  0
 12 13  2  0
 13 14  1  0
 14 15  2  0
 15 16  1  0
 16 17  2  0
 17 18  1  0
 18 19  2  0
 19 20  1  0
 20 21  2  0
  7 22  1  0
 22 23  1  0
 22 24  1  0
 24 25  2  0
 25 26  1  0
 26 27  2  0
 27 28  1  0
 28 29  2  0
 28 30  1  0
 30 31  2  0
 30 32  1  0
 32 33  1  0
 33 34  1  0
 34 35  1  0
 35 36  1  0
 36 37  1  0
 37 38  1  0
 23  5  2  0
 21 12  1  0
 21 16  1  0
 29 24  1  0
M  END
>  <Molecule>  (585) 
CHEMBL1978271

>  <Standard Type>  (585) 
Ki

>  <Standard Relation>  (585) 
>

>  <Standard Value>  (585) 
5011.87

>  <Standard Units>  (585) 
nM

>  <pChEMBL Value>  (585) 
nan

>  <Comment>  (585) 
inactive

>  <Compound Key>  (585) 
SID103904839

>  <Assay>  (585) 
CHEMBL1963742

>  <Assay Description>  (585) 
PUBCHEM_BIOASSAY: Navigating the Kinome. (Class of assay: other) Panel member name: JAK3

>  <BAO Format>  (585) 
assay format

>  <Target>  (585) 
CHEMBL2148

>  <Target Pref. Name>  (585) 
Tyrosine-protein kinase JAK3

>  <Target Organism>  (585) 
Homo sapiens

>  <Target Type>  (585) 
SINGLE PROTEIN

>  <Document>  (585) 
CHEMBL1201862

>  <Source>  (585) 
PubChem BioAssays

>  <Max Phase>  (585) 
0

>  <#Ro5 Violations>  (585) 
1

>  <Molecular Weight>  (585) 
515.61

>  <Ligand Efficiency BEI>  (585) 
nan

>  <Ligand Efficiency LE>  (585) 
nan

>  <Ligand Efficiency LLE>  (585) 
nan

>  <Ligand Efficiency SEI>  (585) 
nan

>  <ALogP>  (585) 
4.71

>  <Assay Organism>  (585) 
nan

>  <Assay Tissue ChEMBL ID>  (585) 
nan

>  <Assay Tissue Name>  (585) 
nan

>  <Assay Cell Type>  (585) 
nan

>  <Assay Subcellular Fraction>  (585) 
nan

>  <Organism Tax ID>  (585) 
9606

>  <BAO Format ID>  (585) 
BAO_0000019

>  <Published Type>  (585) 
nan

>  <Published Relation>  (585) 
nan

>  <Published Value>  (585) 
nan

>  <Published Units>  (585) 
nan

>  <Canonical Smiles>  (585) 
CC(C)(C)c1cc(NC(=O)Nc2cccc3ccccc23)n(n1)c4cccc(c4)C(=O)NCCOCCO

>  <Data Validity Comment>  (585) 
nan

>  <Document Journal>  (585) 
nan

>  <Document Year>  (585) 
nan

>  <SRC ID>  (585) 
7

>  <UO Units>  (585) 
UO_0000065

>  <Potential Duplicate>  (585) 
False

>  <Class>  (585) 
0

$$$$

     RDKit          2D

 20 22  0  0  0  0  0  0  0  0999 V2000
   -2.6401   -3.1891    0.0000 C   0  0  0  0  0  0  0  0  0  0  0  0
   -1.2135   -2.7256    0.0000 C   0  0  0  0  0  0  0  0  0  0  0  0
   -0.0000   -3.6073    0.0000 N   0  0  0  0  0  0  0  0  0  0  0  0
    1.2135   -2.7256    0.0000 N   0  0  0  0  0  0  0  0  0  0  0  0
    0.7500   -1.2990    0.0000 C   0  0  0  0  0  0  0  0  0  0  0  0
    1.5000    0.0000    0.0000 C   0  0  0  0  0  0  0  0  0  0  0  0
    0.7500    1.2990    0.0000 C   0  0  0  0  0  0  0  0  0  0  0  0
   -0.7500    1.2990    0.0000 C   0  0  0  0  0  0  0  0  0  0  0  0
   -1.5000    0.0000    0.0000 C   0  0  0  0  0  0  0  0  0  0  0  0
   -0.7500   -1.2990    0.0000 C   0  0  0  0  0  0  0  0  0  0  0  0
   -1.5000    2.5981    0.0000 C   0  0  0  0  0  0  0  0  0  0  0  0
   -0.7500    3.8971    0.0000 C   0  0  0  0  0  0  0  0  0  0  0  0
   -1.5000    5.1962    0.0000 N   0  0  0  0  0  0  0  0  0  0  0  0
   -3.0000    5.1962    0.0000 C   0  0  0  0  0  0  0  0  0  0  0  0
   -3.7500    3.8971    0.0000 C   0  0  0  0  0  0  0  0  0  0  0  0
   -5.2500    3.8971    0.0000 O   0  0  0  0  0  0  0  0  0  0  0  0
   -6.0000    5.1962    0.0000 C   0  0  0  0  0  0  0  0  0  0  0  0
   -7.5000    5.1962    0.0000 C   0  0  0  0  0  0  0  0  0  0  0  0
   -8.2500    6.4952    0.0000 N   0  0  0  0  0  0  0  0  0  0  0  0
   -3.0000    2.5981    0.0000 C   0  0  0  0  0  0  0  0  0  0  0  0
  1  2  1  0
  2  3  2  0
  3  4  1  0
  4  5  1  0
  5  6  2  0
  6  7  1  0
  7  8  2  0
  8  9  1  0
  9 10  2  0
  8 11  1  0
 11 12  2  0
 12 13  1  0
 13 14  2  0
 14 15  1  0
 15 16  1  0
 16 17  1  0
 17 18  1  0
 18 19  1  0
 15 20  2  0
 10  2  1  0
 10  5  1  0
 20 11  1  0
M  END
>  <Molecule>  (586) 
CHEMBL1967887

>  <Standard Type>  (586) 
Ki

>  <Standard Relation>  (586) 
>

>  <Standard Value>  (586) 
1584.89

>  <Standard Units>  (586) 
nM

>  <pChEMBL Value>  (586) 
nan

>  <Comment>  (586) 
inactive

>  <Compound Key>  (586) 
SID103904469

>  <Assay>  (586) 
CHEMBL1963742

>  <Assay Description>  (586) 
PUBCHEM_BIOASSAY: Navigating the Kinome. (Class of assay: other) Panel member name: JAK3

>  <BAO Format>  (586) 
assay format

>  <Target>  (586) 
CHEMBL2148

>  <Target Pref. Name>  (586) 
Tyrosine-protein kinase JAK3

>  <Target Organism>  (586) 
Homo sapiens

>  <Target Type>  (586) 
SINGLE PROTEIN

>  <Document>  (586) 
CHEMBL1201862

>  <Source>  (586) 
PubChem BioAssays

>  <Max Phase>  (586) 
0

>  <#Ro5 Violations>  (586) 
0

>  <Molecular Weight>  (586) 
268.32

>  <Ligand Efficiency BEI>  (586) 
nan

>  <Ligand Efficiency LE>  (586) 
nan

>  <Ligand Efficiency LLE>  (586) 
nan

>  <Ligand Efficiency SEI>  (586) 
nan

>  <ALogP>  (586) 
2.27

>  <Assay Organism>  (586) 
nan

>  <Assay Tissue ChEMBL ID>  (586) 
nan

>  <Assay Tissue Name>  (586) 
nan

>  <Assay Cell Type>  (586) 
nan

>  <Assay Subcellular Fraction>  (586) 
nan

>  <Organism Tax ID>  (586) 
9606

>  <BAO Format ID>  (586) 
BAO_0000019

>  <Published Type>  (586) 
nan

>  <Published Relation>  (586) 
nan

>  <Published Value>  (586) 
nan

>  <Published Units>  (586) 
nan

>  <Canonical Smiles>  (586) 
Cc1n[nH]c2ccc(cc12)c3cncc(OCCN)c3

>  <Data Validity Comment>  (586) 
nan

>  <Document Journal>  (586) 
nan

>  <Document Year>  (586) 
nan

>  <SRC ID>  (586) 
7

>  <UO Units>  (586) 
UO_0000065

>  <Potential Duplicate>  (586) 
False

>  <Class>  (586) 
0

$$$$

     RDKit          2D

 30 33  0  0  0  0  0  0  0  0999 V2000
   -3.5736    1.2902    0.0000 N   0  0  0  0  0  0  0  0  0  0  0  0
   -2.1470    1.7537    0.0000 C   0  0  0  0  0  0  0  0  0  0  0  0
   -1.8351    3.2209    0.0000 N   0  0  0  0  0  0  0  0  0  0  0  0
   -0.4086    3.6844    0.0000 C   0  0  0  0  0  0  0  0  0  0  0  0
    0.7062    2.6807    0.0000 C   0  0  0  0  0  0  0  0  0  0  0  0
    2.1328    3.1443    0.0000 C   0  0  0  0  0  0  0  0  0  0  0  0
    2.4446    4.6115    0.0000 C   0  0  0  0  0  0  0  0  0  0  0  0
    3.8712    5.0750    0.0000 C   0  0  0  0  0  0  0  0  0  0  0  0
    4.9859    4.0713    0.0000 O   0  0  0  0  0  0  0  0  0  0  0  0
    4.1831    6.5422    0.0000 N   0  0  0  0  0  0  0  0  0  0  0  0
    5.6097    7.0058    0.0000 C   0  0  0  0  0  0  0  0  0  0  0  0
    5.9215    8.4730    0.0000 C   0  0  0  0  0  0  0  0  0  0  0  0
    7.3481    8.9365    0.0000 C   0  0  0  0  0  0  0  0  0  0  0  0
    7.6600   10.4037    0.0000 N   0  0  0  0  0  0  0  0  0  0  0  0
    6.6563   11.5185    0.0000 C   0  0  0  0  0  0  0  0  0  0  0  0
    7.4063   12.8175    0.0000 C   0  0  0  0  0  0  0  0  0  0  0  0
    8.8735   12.5056    0.0000 N   0  0  0  0  0  0  0  0  0  0  0  0
    9.0303   11.0138    0.0000 C   0  0  0  0  0  0  0  0  0  0  0  0
    0.3943    1.2135    0.0000 C   0  0  0  0  0  0  0  0  0  0  0  0
    1.2760    0.0000    0.0000 S   0  0  0  0  0  0  0  0  0  0  0  0
    0.3943   -1.2135    0.0000 C   0  0  0  0  0  0  0  0  0  0  0  0
   -1.0323   -0.7500    0.0000 C   0  0  0  0  0  0  0  0  0  0  0  0
   -2.2458   -1.6317    0.0000 C   0  0  0  0  0  0  0  0  0  0  0  0
   -3.6161   -1.0216    0.0000 C   0  0  0  0  0  0  0  0  0  0  0  0
   -4.8297   -1.9033    0.0000 C   0  0  0  0  0  0  0  0  0  0  0  0
   -4.6729   -3.3950    0.0000 C   0  0  0  0  0  0  0  0  0  0  0  0
   -5.8864   -4.2767    0.0000 Br  0  0  0  0  0  0  0  0  0  0  0  0
   -3.3025   -4.0051    0.0000 C   0  0  0  0  0  0  0  0  0  0  0  0
   -2.0890   -3.1235    0.0000 C   0  0  0  0  0  0  0  0  0  0  0  0
   -1.0323    0.7500    0.0000 C   0  0  0  0  0  0  0  0  0  0  0  0
  1  2  1  0
  2  3  2  0
  3  4  1  0
  4  5  2  0
  5  6  1  0
  6  7  2  3
  7  8  1  0
  8  9  2  0
  8 10  1  0
 10 11  1  0
 11 12  1  0
 12 13  1  0
 13 14  1  0
 14 15  1  0
 15 16  2  0
 16 17  1  0
 17 18  2  0
  5 19  1  0
 19 20  1  0
 20 21  1  0
 21 22  2  0
 22 23  1  0
 23 24  2  0
 24 25  1  0
 25 26  2  0
 26 27  1  0
 26 28  1  0
 28 29  2  0
 22 30  1  0
 30  2  1  0
 18 14  1  0
 30 19  2  0
 29 23  1  0
M  END
>  <Molecule>  (587) 
CHEMBL1994938

>  <Standard Type>  (587) 
Ki

>  <Standard Relation>  (587) 
>

>  <Standard Value>  (587) 
1584.89

>  <Standard Units>  (587) 
nM

>  <pChEMBL Value>  (587) 
nan

>  <Comment>  (587) 
inactive

>  <Compound Key>  (587) 
SID103904796

>  <Assay>  (587) 
CHEMBL1963742

>  <Assay Description>  (587) 
PUBCHEM_BIOASSAY: Navigating the Kinome. (Class of assay: other) Panel member name: JAK3

>  <BAO Format>  (587) 
assay format

>  <Target>  (587) 
CHEMBL2148

>  <Target Pref. Name>  (587) 
Tyrosine-protein kinase JAK3

>  <Target Organism>  (587) 
Homo sapiens

>  <Target Type>  (587) 
SINGLE PROTEIN

>  <Document>  (587) 
CHEMBL1201862

>  <Source>  (587) 
PubChem BioAssays

>  <Max Phase>  (587) 
0

>  <#Ro5 Violations>  (587) 
0

>  <Molecular Weight>  (587) 
482.41

>  <Ligand Efficiency BEI>  (587) 
nan

>  <Ligand Efficiency LE>  (587) 
nan

>  <Ligand Efficiency LLE>  (587) 
nan

>  <Ligand Efficiency SEI>  (587) 
nan

>  <ALogP>  (587) 
4.72

>  <Assay Organism>  (587) 
nan

>  <Assay Tissue ChEMBL ID>  (587) 
nan

>  <Assay Tissue Name>  (587) 
nan

>  <Assay Cell Type>  (587) 
nan

>  <Assay Subcellular Fraction>  (587) 
nan

>  <Organism Tax ID>  (587) 
9606

>  <BAO Format ID>  (587) 
BAO_0000019

>  <Published Type>  (587) 
nan

>  <Published Relation>  (587) 
nan

>  <Published Value>  (587) 
nan

>  <Published Units>  (587) 
nan

>  <Canonical Smiles>  (587) 
Nc1ncc(C=CC(=O)NCCCn2ccnc2)c3scc(c4ccc(Br)cc4)c13

>  <Data Validity Comment>  (587) 
nan

>  <Document Journal>  (587) 
nan

>  <Document Year>  (587) 
nan

>  <SRC ID>  (587) 
7

>  <UO Units>  (587) 
UO_0000065

>  <Potential Duplicate>  (587) 
False

>  <Class>  (587) 
0

$$$$

     RDKit          2D

 30 33  0  0  0  0  0  0  0  0999 V2000
    3.7500   -1.2990    0.0000 C   0  0  0  0  0  0  0  0  0  0  0  0
    3.0000   -2.5981    0.0000 C   0  0  0  0  0  0  0  0  0  0  0  0
    1.5000   -2.5981    0.0000 O   0  0  0  0  0  0  0  0  0  0  0  0
    0.7500   -1.2990    0.0000 C   0  0  0  0  0  0  0  0  0  0  0  0
    1.5000    0.0000    0.0000 C   0  0  0  0  0  0  0  0  0  0  0  0
    0.7500    1.2990    0.0000 C   0  0  0  0  0  0  0  0  0  0  0  0
   -0.7500    1.2990    0.0000 C   0  0  0  0  0  0  0  0  0  0  0  0
   -1.5000    0.0000    0.0000 N   0  0  0  0  0  0  0  0  0  0  0  0
   -0.7500   -1.2990    0.0000 C   0  0  0  0  0  0  0  0  0  0  0  0
   -1.5000   -2.5981    0.0000 N   0  0  0  0  0  0  0  0  0  0  0  0
    1.5000    2.5981    0.0000 C   0  0  0  0  0  0  0  0  0  0  0  0
    0.8899    3.9684    0.0000 C   0  0  0  0  0  0  0  0  0  0  0  0
    2.0046    4.9721    0.0000 N   0  0  0  0  0  0  0  0  0  0  0  0
    3.3037    4.2221    0.0000 N   0  0  0  0  0  0  0  0  0  0  0  0
    2.9918    2.7549    0.0000 C   0  0  0  0  0  0  0  0  0  0  0  0
    4.6740    4.8322    0.0000 C   0  0  0  0  0  0  0  0  0  0  0  0
    5.8875    3.9505    0.0000 C   0  0  0  0  0  0  0  0  0  0  0  0
    7.2578    4.5606    0.0000 C   0  0  0  0  0  0  0  0  0  0  0  0
    7.4146    6.0524    0.0000 N   0  0  0  0  0  0  0  0  0  0  0  0
    6.2011    6.9341    0.0000 C   0  0  0  0  0  0  0  0  0  0  0  0
    4.8308    6.3240    0.0000 C   0  0  0  0  0  0  0  0  0  0  0  0
    3.7500   -3.8971    0.0000 C   0  0  0  0  0  0  0  0  0  0  0  0
    3.0000   -5.1962    0.0000 C   0  0  0  0  0  0  0  0  0  0  0  0
    1.5000   -5.1962    0.0000 Cl  0  0  0  0  0  0  0  0  0  0  0  0
    3.7500   -6.4952    0.0000 C   0  0  0  0  0  0  0  0  0  0  0  0
    5.2500   -6.4952    0.0000 C   0  0  0  0  0  0  0  0  0  0  0  0
    6.0000   -5.1962    0.0000 C   0  0  0  0  0  0  0  0  0  0  0  0
    7.5000   -5.1962    0.0000 F   0  0  0  0  0  0  0  0  0  0  0  0
    5.2500   -3.8971    0.0000 C   0  0  0  0  0  0  0  0  0  0  0  0
    6.0000   -2.5981    0.0000 Cl  0  0  0  0  0  0  0  0  0  0  0  0
  1  2  1  0
  2  3  1  0
  3  4  1  0
  4  5  2  0
  5  6  1  0
  6  7  2  0
  7  8  1  0
  8  9  2  0
  9 10  1  0
  6 11  1  0
 11 12  1  0
 12 13  2  0
 13 14  1  0
 14 15  1  0
 14 16  1  0
 16 17  1  0
 17 18  1  0
 18 19  1  0
 19 20  1  0
 20 21  1  0
  2 22  1  0
 22 23  2  0
 23 24  1  0
 23 25  1  0
 25 26  2  0
 26 27  1  0
 27 28  1  0
 27 29  2  0
 29 30  1  0
  9  4  1  0
 15 11  2  0
 21 16  1  0
 29 22  1  0
M  END
>  <Molecule>  (588) 
CHEMBL1825138

>  <Standard Type>  (588) 
Ki

>  <Standard Relation>  (588) 
=

>  <Standard Value>  (588) 
630.96

>  <Standard Units>  (588) 
nM

>  <pChEMBL Value>  (588) 
6.2

>  <Comment>  (588) 
active

>  <Compound Key>  (588) 
SID103905247

>  <Assay>  (588) 
CHEMBL1963742

>  <Assay Description>  (588) 
PUBCHEM_BIOASSAY: Navigating the Kinome. (Class of assay: other) Panel member name: JAK3

>  <BAO Format>  (588) 
assay format

>  <Target>  (588) 
CHEMBL2148

>  <Target Pref. Name>  (588) 
Tyrosine-protein kinase JAK3

>  <Target Organism>  (588) 
Homo sapiens

>  <Target Type>  (588) 
SINGLE PROTEIN

>  <Document>  (588) 
CHEMBL1201862

>  <Source>  (588) 
PubChem BioAssays

>  <Max Phase>  (588) 
0

>  <#Ro5 Violations>  (588) 
1

>  <Molecular Weight>  (588) 
450.35

>  <Ligand Efficiency BEI>  (588) 
nan

>  <Ligand Efficiency LE>  (588) 
nan

>  <Ligand Efficiency LLE>  (588) 
nan

>  <Ligand Efficiency SEI>  (588) 
nan

>  <ALogP>  (588) 
5.04

>  <Assay Organism>  (588) 
nan

>  <Assay Tissue ChEMBL ID>  (588) 
nan

>  <Assay Tissue Name>  (588) 
nan

>  <Assay Cell Type>  (588) 
nan

>  <Assay Subcellular Fraction>  (588) 
nan

>  <Organism Tax ID>  (588) 
9606

>  <BAO Format ID>  (588) 
BAO_0000019

>  <Published Type>  (588) 
nan

>  <Published Relation>  (588) 
nan

>  <Published Value>  (588) 
nan

>  <Published Units>  (588) 
nan

>  <Canonical Smiles>  (588) 
CC(Oc1cc(cnc1N)c2cnn(c2)C3CCNCC3)c4c(Cl)ccc(F)c4Cl

>  <Data Validity Comment>  (588) 
nan

>  <Document Journal>  (588) 
nan

>  <Document Year>  (588) 
nan

>  <SRC ID>  (588) 
7

>  <UO Units>  (588) 
UO_0000065

>  <Potential Duplicate>  (588) 
False

>  <Class>  (588) 
1

$$$$

     RDKit          2D

 37 41  0  0  0  0  0  0  0  0999 V2000
    0.7500   -6.4952    0.0000 C   0  0  0  0  0  0  0  0  0  0  0  0
    1.5000   -5.1962    0.0000 C   0  0  0  0  0  0  0  0  0  0  0  0
    0.7500   -3.8971    0.0000 C   0  0  0  0  0  0  0  0  0  0  0  0
    1.5000   -2.5981    0.0000 N   0  0  0  0  0  0  0  0  0  0  0  0
    3.0000   -2.5981    0.0000 C   0  0  0  0  0  0  0  0  0  0  0  0
    3.8817   -1.3846    0.0000 C   0  0  0  0  0  0  0  0  0  0  0  0
    5.3083   -1.8481    0.0000 C   0  0  0  0  0  0  0  0  0  0  0  0
    5.3083   -3.3481    0.0000 C   0  0  0  0  0  0  0  0  0  0  0  0
    3.8817   -3.8116    0.0000 C   0  0  0  0  0  0  0  0  0  0  0  0
    0.7500   -1.2990    0.0000 C   0  0  0  0  0  0  0  0  0  0  0  0
    1.5000    0.0000    0.0000 N   0  0  0  0  0  0  0  0  0  0  0  0
    0.7500    1.2990    0.0000 C   0  0  0  0  0  0  0  0  0  0  0  0
    1.5000    2.5981    0.0000 N   0  0  0  0  0  0  0  0  0  0  0  0
    3.0000    2.5981    0.0000 C   0  0  0  0  0  0  0  0  0  0  0  0
    3.7500    1.2990    0.0000 C   0  0  0  0  0  0  0  0  0  0  0  0
    5.2500    1.2990    0.0000 C   0  0  0  0  0  0  0  0  0  0  0  0
    6.0000    2.5981    0.0000 C   0  0  0  0  0  0  0  0  0  0  0  0
    5.2500    3.8971    0.0000 C   0  0  0  0  0  0  0  0  0  0  0  0
    3.7500    3.8971    0.0000 C   0  0  0  0  0  0  0  0  0  0  0  0
    3.0000    5.1962    0.0000 O   0  0  0  0  0  0  0  0  0  0  0  0
    3.7500    6.4952    0.0000 C   0  0  0  0  0  0  0  0  0  0  0  0
    7.5000    2.5981    0.0000 C   0  0  0  0  0  0  0  0  0  0  0  0
    8.2500    3.8971    0.0000 O   0  0  0  0  0  0  0  0  0  0  0  0
    8.2500    1.2990    0.0000 N   0  0  0  0  0  0  0  0  0  0  0  0
    9.7500    1.2990    0.0000 C   0  0  0  0  0  0  0  0  0  0  0  0
   10.5000   -0.0000    0.0000 C   0  0  0  0  0  0  0  0  0  0  0  0
   12.0000   -0.0000    0.0000 C   0  0  0  0  0  0  0  0  0  0  0  0
   12.7500    1.2990    0.0000 C   0  0  0  0  0  0  0  0  0  0  0  0
   12.0000    2.5981    0.0000 C   0  0  0  0  0  0  0  0  0  0  0  0
   10.5000    2.5981    0.0000 C   0  0  0  0  0  0  0  0  0  0  0  0
   -0.7500    1.2990    0.0000 N   0  0  0  0  0  0  0  0  0  0  0  0
   -1.5000    0.0000    0.0000 C   0  0  0  0  0  0  0  0  0  0  0  0
   -0.7500   -1.2990    0.0000 C   0  0  0  0  0  0  0  0  0  0  0  0
   -1.5000   -2.5981    0.0000 N   0  0  0  0  0  0  0  0  0  0  0  0
   -3.0000   -2.5981    0.0000 C   0  0  0  0  0  0  0  0  0  0  0  0
   -0.7500   -3.8971    0.0000 C   0  0  0  0  0  0  0  0  0  0  0  0
   -1.5000   -5.1962    0.0000 O   0  0  0  0  0  0  0  0  0  0  0  0
  1  2  1  0
  2  3  1  0
  3  4  1  0
  4  5  1  0
  5  6  1  0
  6  7  1  0
  7  8  1  0
  8  9  1  0
  4 10  1  0
 10 11  2  0
 11 12  1  0
 12 13  1  0
 13 14  1  0
 14 15  2  0
 15 16  1  0
 16 17  2  0
 17 18  1  0
 18 19  2  0
 19 20  1  0
 20 21  1  0
 17 22  1  0
 22 23  2  0
 22 24  1  0
 24 25  1  0
 25 26  1  0
 26 27  1  0
 27 28  1  0
 28 29  1  0
 29 30  1  0
 12 31  2  0
 31 32  1  0
 32 33  2  0
 33 34  1  0
 34 35  1  0
 34 36  1  0
 36 37  2  0
 36  3  1  0
  9  5  1  0
 33 10  1  0
 19 14  1  0
 30 25  1  0
M  END
>  <Molecule>  (589) 
CHEMBL2005375

>  <Standard Type>  (589) 
Ki

>  <Standard Relation>  (589) 
>

>  <Standard Value>  (589) 
1584.89

>  <Standard Units>  (589) 
nM

>  <pChEMBL Value>  (589) 
nan

>  <Comment>  (589) 
inactive

>  <Compound Key>  (589) 
SID103904641

>  <Assay>  (589) 
CHEMBL1963742

>  <Assay Description>  (589) 
PUBCHEM_BIOASSAY: Navigating the Kinome. (Class of assay: other) Panel member name: JAK3

>  <BAO Format>  (589) 
assay format

>  <Target>  (589) 
CHEMBL2148

>  <Target Pref. Name>  (589) 
Tyrosine-protein kinase JAK3

>  <Target Organism>  (589) 
Homo sapiens

>  <Target Type>  (589) 
SINGLE PROTEIN

>  <Document>  (589) 
CHEMBL1201862

>  <Source>  (589) 
PubChem BioAssays

>  <Max Phase>  (589) 
0

>  <#Ro5 Violations>  (589) 
1

>  <Molecular Weight>  (589) 
506.65

>  <Ligand Efficiency BEI>  (589) 
nan

>  <Ligand Efficiency LE>  (589) 
nan

>  <Ligand Efficiency LLE>  (589) 
nan

>  <Ligand Efficiency SEI>  (589) 
nan

>  <ALogP>  (589) 
4.8

>  <Assay Organism>  (589) 
nan

>  <Assay Tissue ChEMBL ID>  (589) 
nan

>  <Assay Tissue Name>  (589) 
nan

>  <Assay Cell Type>  (589) 
nan

>  <Assay Subcellular Fraction>  (589) 
nan

>  <Organism Tax ID>  (589) 
9606

>  <BAO Format ID>  (589) 
BAO_0000019

>  <Published Type>  (589) 
nan

>  <Published Relation>  (589) 
nan

>  <Published Value>  (589) 
nan

>  <Published Units>  (589) 
nan

>  <Canonical Smiles>  (589) 
CCC1N(C2CCCC2)c3nc(Nc4ccc(cc4OC)C(=O)NC5CCCCC5)ncc3N(C)C1=O

>  <Data Validity Comment>  (589) 
nan

>  <Document Journal>  (589) 
nan

>  <Document Year>  (589) 
nan

>  <SRC ID>  (589) 
7

>  <UO Units>  (589) 
UO_0000065

>  <Potential Duplicate>  (589) 
False

>  <Class>  (589) 
0

$$$$

     RDKit          2D

 35 38  0  0  0  0  0  0  0  0999 V2000
   -7.8396   -9.2187    0.0000 C   0  0  0  0  0  0  0  0  0  0  0  0
   -6.3478   -9.0619    0.0000 C   0  0  0  0  0  0  0  0  0  0  0  0
   -4.8560   -8.9052    0.0000 C   0  0  0  0  0  0  0  0  0  0  0  0
   -6.1910  -10.5537    0.0000 C   0  0  0  0  0  0  0  0  0  0  0  0
   -6.5046   -7.5702    0.0000 C   0  0  0  0  0  0  0  0  0  0  0  0
   -5.3899   -6.5665    0.0000 C   0  0  0  0  0  0  0  0  0  0  0  0
   -6.0000   -5.1962    0.0000 C   0  0  0  0  0  0  0  0  0  0  0  0
   -5.2500   -3.8971    0.0000 N   0  0  0  0  0  0  0  0  0  0  0  0
   -3.7500   -3.8971    0.0000 C   0  0  0  0  0  0  0  0  0  0  0  0
   -3.0000   -5.1962    0.0000 O   0  0  0  0  0  0  0  0  0  0  0  0
   -3.0000   -2.5981    0.0000 C   0  0  0  0  0  0  0  0  0  0  0  0
   -3.7500   -1.2990    0.0000 O   0  0  0  0  0  0  0  0  0  0  0  0
   -1.5000   -2.5981    0.0000 C   0  0  0  0  0  0  0  0  0  0  0  0
   -0.7500   -3.8971    0.0000 C   0  0  0  0  0  0  0  0  0  0  0  0
    0.7500   -3.8971    0.0000 C   0  0  0  0  0  0  0  0  0  0  0  0
    1.5000   -2.5981    0.0000 C   0  0  0  0  0  0  0  0  0  0  0  0
    0.7500   -1.2990    0.0000 C   0  0  0  0  0  0  0  0  0  0  0  0
    1.5000    0.0000    0.0000 C   0  0  0  0  0  0  0  0  0  0  0  0
    0.7500    1.2990    0.0000 C   0  0  0  0  0  0  0  0  0  0  0  0
   -0.7500    1.2990    0.0000 C   0  0  0  0  0  0  0  0  0  0  0  0
   -1.5000    0.0000    0.0000 C   0  0  0  0  0  0  0  0  0  0  0  0
   -0.7500   -1.2990    0.0000 C   0  0  0  0  0  0  0  0  0  0  0  0
   -7.4918   -5.3529    0.0000 N   0  0  0  0  0  0  0  0  0  0  0  0
   -7.8037   -6.8202    0.0000 N   0  0  0  0  0  0  0  0  0  0  0  0
   -8.4955   -4.2382    0.0000 C   0  0  0  0  0  0  0  0  0  0  0  0
   -8.0320   -2.8116    0.0000 C   0  0  0  0  0  0  0  0  0  0  0  0
   -9.0356   -1.6969    0.0000 C   0  0  0  0  0  0  0  0  0  0  0  0
  -10.5029   -2.0088    0.0000 C   0  0  0  0  0  0  0  0  0  0  0  0
  -11.5066   -0.8941    0.0000 O   0  0  0  0  0  0  0  0  0  0  0  0
  -11.0430    0.5325    0.0000 C   0  0  0  0  0  0  0  0  0  0  0  0
  -12.0467    1.6472    0.0000 C   0  0  0  0  0  0  0  0  0  0  0  0
  -13.5140    1.3354    0.0000 O   0  0  0  0  0  0  0  0  0  0  0  0
  -11.5832    3.0738    0.0000 O   0  0  0  0  0  0  0  0  0  0  0  0
  -10.9664   -3.4354    0.0000 C   0  0  0  0  0  0  0  0  0  0  0  0
   -9.9627   -4.5501    0.0000 C   0  0  0  0  0  0  0  0  0  0  0  0
  1  2  1  0
  2  3  1  0
  2  4  1  0
  2  5  1  0
  5  6  1  0
  6  7  2  0
  7  8  1  0
  8  9  1  0
  9 10  2  0
  9 11  1  0
 11 12  2  0
 11 13  1  0
 13 14  2  0
 14 15  1  0
 15 16  2  0
 16 17  1  0
 17 18  2  0
 18 19  1  0
 19 20  2  0
 20 21  1  0
 21 22  2  0
  7 23  1  0
 23 24  1  0
 23 25  1  0
 25 26  2  0
 26 27  1  0
 27 28  2  0
 28 29  1  0
 29 30  1  0
 30 31  1  0
 31 32  2  0
 31 33  1  0
 28 34  1  0
 34 35  2  0
 24  5  2  0
 22 13  1  0
 22 17  1  0
 35 25  1  0
M  END
>  <Molecule>  (590) 
CHEMBL2005699

>  <Standard Type>  (590) 
Ki

>  <Standard Relation>  (590) 
>

>  <Standard Value>  (590) 
5011.87

>  <Standard Units>  (590) 
nM

>  <pChEMBL Value>  (590) 
nan

>  <Comment>  (590) 
inactive

>  <Compound Key>  (590) 
SID103904845

>  <Assay>  (590) 
CHEMBL1963742

>  <Assay Description>  (590) 
PUBCHEM_BIOASSAY: Navigating the Kinome. (Class of assay: other) Panel member name: JAK3

>  <BAO Format>  (590) 
assay format

>  <Target>  (590) 
CHEMBL2148

>  <Target Pref. Name>  (590) 
Tyrosine-protein kinase JAK3

>  <Target Organism>  (590) 
Homo sapiens

>  <Target Type>  (590) 
SINGLE PROTEIN

>  <Document>  (590) 
CHEMBL1201862

>  <Source>  (590) 
PubChem BioAssays

>  <Max Phase>  (590) 
0

>  <#Ro5 Violations>  (590) 
0

>  <Molecular Weight>  (590) 
471.51

>  <Ligand Efficiency BEI>  (590) 
nan

>  <Ligand Efficiency LE>  (590) 
nan

>  <Ligand Efficiency LLE>  (590) 
nan

>  <Ligand Efficiency SEI>  (590) 
nan

>  <ALogP>  (590) 
4.61

>  <Assay Organism>  (590) 
nan

>  <Assay Tissue ChEMBL ID>  (590) 
nan

>  <Assay Tissue Name>  (590) 
nan

>  <Assay Cell Type>  (590) 
nan

>  <Assay Subcellular Fraction>  (590) 
nan

>  <Organism Tax ID>  (590) 
9606

>  <BAO Format ID>  (590) 
BAO_0000019

>  <Published Type>  (590) 
nan

>  <Published Relation>  (590) 
nan

>  <Published Value>  (590) 
nan

>  <Published Units>  (590) 
nan

>  <Canonical Smiles>  (590) 
CC(C)(C)c1cc(NC(=O)C(=O)c2cccc3ccccc23)n(n1)c4ccc(OCC(=O)O)cc4

>  <Data Validity Comment>  (590) 
nan

>  <Document Journal>  (590) 
nan

>  <Document Year>  (590) 
nan

>  <SRC ID>  (590) 
7

>  <UO Units>  (590) 
UO_0000065

>  <Potential Duplicate>  (590) 
False

>  <Class>  (590) 
0

$$$$

     RDKit          2D

 31 33  0  0  0  0  0  0  0  0999 V2000
    3.7500   -1.2990    0.0000 C   0  0  0  0  0  0  0  0  0  0  0  0
    3.0000    0.0000    0.0000 O   0  0  0  0  0  0  0  0  0  0  0  0
    1.5000    0.0000    0.0000 C   0  0  0  0  0  0  0  0  0  0  0  0
    0.7500   -1.2990    0.0000 C   0  0  0  0  0  0  0  0  0  0  0  0
   -0.7500   -1.2990    0.0000 C   0  0  0  0  0  0  0  0  0  0  0  0
   -1.5000    0.0000    0.0000 C   0  0  0  0  0  0  0  0  0  0  0  0
   -3.0000    0.0000    0.0000 N   0  0  0  0  0  0  0  0  0  0  0  0
   -3.7500    1.2990    0.0000 C   0  0  0  0  0  0  0  0  0  0  0  0
   -3.0000    2.5981    0.0000 N   0  0  0  0  0  0  0  0  0  0  0  0
   -3.7500    3.8971    0.0000 C   0  0  0  0  0  0  0  0  0  0  0  0
   -5.2500    3.8971    0.0000 C   0  0  0  0  0  0  0  0  0  0  0  0
   -6.0000    2.5981    0.0000 C   0  0  0  0  0  0  0  0  0  0  0  0
   -7.5000    2.5981    0.0000 N   0  0  0  0  0  0  0  0  0  0  0  0
   -8.2500    3.8971    0.0000 C   0  0  0  0  0  0  0  0  0  0  0  0
   -7.8618    5.3460    0.0000 C   0  0  0  0  0  0  0  0  0  0  0  0
   -6.5627    6.0960    0.0000 N   0  0  0  0  0  0  0  0  0  0  0  0
   -6.5627    7.5960    0.0000 C   0  0  0  0  0  0  0  0  0  0  0  0
   -5.2637    8.3460    0.0000 C   0  0  0  0  0  0  0  0  0  0  0  0
   -7.8618    8.3460    0.0000 C   0  0  0  0  0  0  0  0  0  0  0  0
   -7.1118    9.6450    0.0000 C   0  0  0  0  0  0  0  0  0  0  0  0
   -8.6118    7.0470    0.0000 C   0  0  0  0  0  0  0  0  0  0  0  0
   -9.1608    9.0960    0.0000 C   0  0  0  0  0  0  0  0  0  0  0  0
   -9.3107    5.7342    0.0000 C   0  0  0  0  0  0  0  0  0  0  0  0
  -10.0607    7.0333    0.0000 O   0  0  0  0  0  0  0  0  0  0  0  0
   -9.6989    4.2853    0.0000 C   0  0  0  0  0  0  0  0  0  0  0  0
  -10.9979    3.5353    0.0000 O   0  0  0  0  0  0  0  0  0  0  0  0
   -5.2500    1.2990    0.0000 N   0  0  0  0  0  0  0  0  0  0  0  0
   -0.7500    1.2990    0.0000 C   0  0  0  0  0  0  0  0  0  0  0  0
    0.7500    1.2990    0.0000 C   0  0  0  0  0  0  0  0  0  0  0  0
    1.5000    2.5981    0.0000 O   0  0  0  0  0  0  0  0  0  0  0  0
    0.7500    3.8971    0.0000 C   0  0  0  0  0  0  0  0  0  0  0  0
  1  2  1  0
  2  3  1  0
  3  4  2  0
  4  5  1  0
  5  6  2  0
  6  7  1  0
  7  8  1  0
  8  9  2  0
  9 10  1  0
 10 11  2  0
 11 12  1  0
 12 13  1  0
 13 14  1  0
 14 15  2  0
 15 16  1  0
 16 17  1  0
 17 18  1  0
 17 19  1  0
 19 20  1  0
 19 21  1  0
 19 22  1  0
 15 23  1  0
 23 24  2  0
 23 25  1  0
 25 26  2  0
 12 27  2  0
  6 28  1  0
 28 29  2  0
 29 30  1  0
 30 31  1  0
 29  3  1  0
 27  8  1  0
 25 14  1  0
M  END
>  <Molecule>  (591) 
CHEMBL1964399

>  <Standard Type>  (591) 
Ki

>  <Standard Relation>  (591) 
>

>  <Standard Value>  (591) 
1584.89

>  <Standard Units>  (591) 
nM

>  <pChEMBL Value>  (591) 
nan

>  <Comment>  (591) 
inactive

>  <Compound Key>  (591) 
SID103904938

>  <Assay>  (591) 
CHEMBL1963742

>  <Assay Description>  (591) 
PUBCHEM_BIOASSAY: Navigating the Kinome. (Class of assay: other) Panel member name: JAK3

>  <BAO Format>  (591) 
assay format

>  <Target>  (591) 
CHEMBL2148

>  <Target Pref. Name>  (591) 
Tyrosine-protein kinase JAK3

>  <Target Organism>  (591) 
Homo sapiens

>  <Target Type>  (591) 
SINGLE PROTEIN

>  <Document>  (591) 
CHEMBL1201862

>  <Source>  (591) 
PubChem BioAssays

>  <Max Phase>  (591) 
0

>  <#Ro5 Violations>  (591) 
0

>  <Molecular Weight>  (591) 
425.49

>  <Ligand Efficiency BEI>  (591) 
nan

>  <Ligand Efficiency LE>  (591) 
nan

>  <Ligand Efficiency LLE>  (591) 
nan

>  <Ligand Efficiency SEI>  (591) 
nan

>  <ALogP>  (591) 
3.42

>  <Assay Organism>  (591) 
nan

>  <Assay Tissue ChEMBL ID>  (591) 
nan

>  <Assay Tissue Name>  (591) 
nan

>  <Assay Cell Type>  (591) 
nan

>  <Assay Subcellular Fraction>  (591) 
nan

>  <Organism Tax ID>  (591) 
9606

>  <BAO Format ID>  (591) 
BAO_0000019

>  <Published Type>  (591) 
nan

>  <Published Relation>  (591) 
nan

>  <Published Value>  (591) 
nan

>  <Published Units>  (591) 
nan

>  <Canonical Smiles>  (591) 
COc1ccc(Nc2nccc(NC3=C(NC(C)C(C)(C)C)C(=O)C3=O)n2)cc1OC

>  <Data Validity Comment>  (591) 
nan

>  <Document Journal>  (591) 
nan

>  <Document Year>  (591) 
nan

>  <SRC ID>  (591) 
7

>  <UO Units>  (591) 
UO_0000065

>  <Potential Duplicate>  (591) 
False

>  <Class>  (591) 
0

$$$$

     RDKit          2D

 33 36  0  0  0  0  0  0  0  0999 V2000
    8.0406   12.1352    0.0000 C   0  0  0  0  0  0  0  0  0  0  0  0
    7.5771   10.7086    0.0000 C   0  0  0  0  0  0  0  0  0  0  0  0
    8.5808    9.5939    0.0000 C   0  0  0  0  0  0  0  0  0  0  0  0
    8.1173    8.1673    0.0000 C   0  0  0  0  0  0  0  0  0  0  0  0
    6.6501    7.8555    0.0000 C   0  0  0  0  0  0  0  0  0  0  0  0
    5.6464    8.9702    0.0000 C   0  0  0  0  0  0  0  0  0  0  0  0
    4.1791    8.6583    0.0000 N   0  0  0  0  0  0  0  0  0  0  0  0
    3.7156    7.2317    0.0000 C   0  0  0  0  0  0  0  0  0  0  0  0
    4.7193    6.1170    0.0000 O   0  0  0  0  0  0  0  0  0  0  0  0
    2.2484    6.9199    0.0000 N   0  0  0  0  0  0  0  0  0  0  0  0
    1.7849    5.4933    0.0000 C   0  0  0  0  0  0  0  0  0  0  0  0
    0.3177    5.1814    0.0000 C   0  0  0  0  0  0  0  0  0  0  0  0
   -0.1459    3.7548    0.0000 C   0  0  0  0  0  0  0  0  0  0  0  0
    0.8578    2.6401    0.0000 C   0  0  0  0  0  0  0  0  0  0  0  0
    2.3250    2.9520    0.0000 C   0  0  0  0  0  0  0  0  0  0  0  0
    2.7886    4.3786    0.0000 C   0  0  0  0  0  0  0  0  0  0  0  0
    0.3943    1.2135    0.0000 C   0  0  0  0  0  0  0  0  0  0  0  0
    1.2760    0.0000    0.0000 C   0  0  0  0  0  0  0  0  0  0  0  0
    0.3943   -1.2135    0.0000 S   0  0  0  0  0  0  0  0  0  0  0  0
   -1.0323   -0.7500    0.0000 C   0  0  0  0  0  0  0  0  0  0  0  0
   -2.3313   -1.5000    0.0000 C   0  0  0  0  0  0  0  0  0  0  0  0
   -3.6304   -0.7500    0.0000 C   0  0  0  0  0  0  0  0  0  0  0  0
   -3.6304    0.7500    0.0000 N   0  0  0  0  0  0  0  0  0  0  0  0
   -2.3313    1.5000    0.0000 C   0  0  0  0  0  0  0  0  0  0  0  0
   -2.3313    3.0000    0.0000 N   0  0  0  0  0  0  0  0  0  0  0  0
   -1.0323    0.7500    0.0000 C   0  0  0  0  0  0  0  0  0  0  0  0
   -2.3313   -3.0000    0.0000 C   0  0  0  0  0  0  0  0  0  0  0  0
   -2.3313   -4.5000    0.0000 C   0  0  0  0  0  0  0  0  0  0  0  0
   -2.3313   -6.0000    0.0000 C   0  0  0  0  0  0  0  0  0  0  0  0
   -0.8313   -6.0000    0.0000 C   0  0  0  0  0  0  0  0  0  0  0  0
   -3.8313   -6.0000    0.0000 C   0  0  0  0  0  0  0  0  0  0  0  0
   -2.3313   -7.5000    0.0000 N   0  0  0  0  0  0  0  0  0  0  0  0
    6.1099   10.3968    0.0000 C   0  0  0  0  0  0  0  0  0  0  0  0
  1  2  1  0
  2  3  2  0
  3  4  1  0
  4  5  2  0
  5  6  1  0
  6  7  1  0
  7  8  1  0
  8  9  2  0
  8 10  1  0
 10 11  1  0
 11 12  2  0
 12 13  1  0
 13 14  2  0
 14 15  1  0
 15 16  2  0
 14 17  1  0
 17 18  2  0
 18 19  1  0
 19 20  1  0
 20 21  2  0
 21 22  1  0
 22 23  2  0
 23 24  1  0
 24 25  1  0
 24 26  2  0
 21 27  1  0
 27 28  3  0
 28 29  1  0
 29 30  1  0
 29 31  1  0
 29 32  1  0
  6 33  2  0
 33  2  1  0
 16 11  1  0
 26 17  1  0
 26 20  1  0
M  END
>  <Molecule>  (592) 
CHEMBL1979577

>  <Standard Type>  (592) 
Ki

>  <Standard Relation>  (592) 
>

>  <Standard Value>  (592) 
1584.89

>  <Standard Units>  (592) 
nM

>  <pChEMBL Value>  (592) 
nan

>  <Comment>  (592) 
inactive

>  <Compound Key>  (592) 
SID103904303

>  <Assay>  (592) 
CHEMBL1963742

>  <Assay Description>  (592) 
PUBCHEM_BIOASSAY: Navigating the Kinome. (Class of assay: other) Panel member name: JAK3

>  <BAO Format>  (592) 
assay format

>  <Target>  (592) 
CHEMBL2148

>  <Target Pref. Name>  (592) 
Tyrosine-protein kinase JAK3

>  <Target Organism>  (592) 
Homo sapiens

>  <Target Type>  (592) 
SINGLE PROTEIN

>  <Document>  (592) 
CHEMBL1201862

>  <Source>  (592) 
PubChem BioAssays

>  <Max Phase>  (592) 
0

>  <#Ro5 Violations>  (592) 
1

>  <Molecular Weight>  (592) 
455.59

>  <Ligand Efficiency BEI>  (592) 
nan

>  <Ligand Efficiency LE>  (592) 
nan

>  <Ligand Efficiency LLE>  (592) 
nan

>  <Ligand Efficiency SEI>  (592) 
nan

>  <ALogP>  (592) 
5.59

>  <Assay Organism>  (592) 
nan

>  <Assay Tissue ChEMBL ID>  (592) 
nan

>  <Assay Tissue Name>  (592) 
nan

>  <Assay Cell Type>  (592) 
nan

>  <Assay Subcellular Fraction>  (592) 
nan

>  <Organism Tax ID>  (592) 
9606

>  <BAO Format ID>  (592) 
BAO_0000019

>  <Published Type>  (592) 
nan

>  <Published Relation>  (592) 
nan

>  <Published Value>  (592) 
nan

>  <Published Units>  (592) 
nan

>  <Canonical Smiles>  (592) 
Cc1cccc(NC(=O)Nc2ccc(cc2)c3csc4c(cnc(N)c34)C#CC(C)(C)N)c1

>  <Data Validity Comment>  (592) 
nan

>  <Document Journal>  (592) 
nan

>  <Document Year>  (592) 
nan

>  <SRC ID>  (592) 
7

>  <UO Units>  (592) 
UO_0000065

>  <Potential Duplicate>  (592) 
False

>  <Class>  (592) 
0

$$$$

     RDKit          2D

 24 26  0  0  0  0  0  0  0  0999 V2000
   -4.2437   10.6337    0.0000 N   0  0  0  0  0  0  0  0  0  0  0  0
   -4.5556    9.1664    0.0000 C   0  0  0  0  0  0  0  0  0  0  0  0
   -3.4408    8.1628    0.0000 C   0  0  0  0  0  0  0  0  0  0  0  0
   -3.7527    6.6955    0.0000 C   0  0  0  0  0  0  0  0  0  0  0  0
   -2.6380    5.6918    0.0000 C   0  0  0  0  0  0  0  0  0  0  0  0
   -1.2114    6.1554    0.0000 O   0  0  0  0  0  0  0  0  0  0  0  0
   -2.9499    4.2246    0.0000 N   0  0  0  0  0  0  0  0  0  0  0  0
   -1.8351    3.2209    0.0000 C   0  0  0  0  0  0  0  0  0  0  0  0
   -0.4086    3.6844    0.0000 C   0  0  0  0  0  0  0  0  0  0  0  0
    0.7062    2.6807    0.0000 C   0  0  0  0  0  0  0  0  0  0  0  0
    0.3943    1.2135    0.0000 C   0  0  0  0  0  0  0  0  0  0  0  0
    1.2760    0.0000    0.0000 N   0  0  0  0  0  0  0  0  0  0  0  0
    0.3943   -1.2135    0.0000 N   0  0  0  0  0  0  0  0  0  0  0  0
   -1.0323   -0.7500    0.0000 C   0  0  0  0  0  0  0  0  0  0  0  0
   -1.0323    0.7500    0.0000 C   0  0  0  0  0  0  0  0  0  0  0  0
   -2.1470    1.7537    0.0000 C   0  0  0  0  0  0  0  0  0  0  0  0
   -5.1793    6.2320    0.0000 C   0  0  0  0  0  0  0  0  0  0  0  0
   -6.2940    7.2357    0.0000 C   0  0  0  0  0  0  0  0  0  0  0  0
   -7.7206    6.7722    0.0000 C   0  0  0  0  0  0  0  0  0  0  0  0
   -8.0325    5.3050    0.0000 C   0  0  0  0  0  0  0  0  0  0  0  0
   -9.4590    4.8414    0.0000 Cl  0  0  0  0  0  0  0  0  0  0  0  0
   -6.9177    4.3013    0.0000 C   0  0  0  0  0  0  0  0  0  0  0  0
   -7.2296    2.8340    0.0000 Cl  0  0  0  0  0  0  0  0  0  0  0  0
   -5.4912    4.7648    0.0000 C   0  0  0  0  0  0  0  0  0  0  0  0
  1  2  1  0
  2  3  1  0
  3  4  1  0
  4  5  1  0
  5  6  2  0
  5  7  1  0
  7  8  1  0
  8  9  2  0
  9 10  1  0
 10 11  2  0
 11 12  1  0
 12 13  1  0
 13 14  2  0
 14 15  1  0
 15 16  2  0
  4 17  1  0
 17 18  2  0
 18 19  1  0
 19 20  2  0
 20 21  1  0
 20 22  1  0
 22 23  1  0
 22 24  2  0
 16  8  1  0
 15 11  1  0
 24 17  1  0
M  END
>  <Molecule>  (593) 
CHEMBL1998121

>  <Standard Type>  (593) 
Ki

>  <Standard Relation>  (593) 
>

>  <Standard Value>  (593) 
1584.89

>  <Standard Units>  (593) 
nM

>  <pChEMBL Value>  (593) 
nan

>  <Comment>  (593) 
inactive

>  <Compound Key>  (593) 
SID103904657

>  <Assay>  (593) 
CHEMBL1963742

>  <Assay Description>  (593) 
PUBCHEM_BIOASSAY: Navigating the Kinome. (Class of assay: other) Panel member name: JAK3

>  <BAO Format>  (593) 
assay format

>  <Target>  (593) 
CHEMBL2148

>  <Target Pref. Name>  (593) 
Tyrosine-protein kinase JAK3

>  <Target Organism>  (593) 
Homo sapiens

>  <Target Type>  (593) 
SINGLE PROTEIN

>  <Document>  (593) 
CHEMBL1201862

>  <Source>  (593) 
PubChem BioAssays

>  <Max Phase>  (593) 
0

>  <#Ro5 Violations>  (593) 
0

>  <Molecular Weight>  (593) 
363.25

>  <Ligand Efficiency BEI>  (593) 
nan

>  <Ligand Efficiency LE>  (593) 
nan

>  <Ligand Efficiency LLE>  (593) 
nan

>  <Ligand Efficiency SEI>  (593) 
nan

>  <ALogP>  (593) 
3.94

>  <Assay Organism>  (593) 
nan

>  <Assay Tissue ChEMBL ID>  (593) 
nan

>  <Assay Tissue Name>  (593) 
nan

>  <Assay Cell Type>  (593) 
nan

>  <Assay Subcellular Fraction>  (593) 
nan

>  <Organism Tax ID>  (593) 
9606

>  <BAO Format ID>  (593) 
BAO_0000019

>  <Published Type>  (593) 
nan

>  <Published Relation>  (593) 
nan

>  <Published Value>  (593) 
nan

>  <Published Units>  (593) 
nan

>  <Canonical Smiles>  (593) 
NCCC(C(=O)Nc1ccc2[nH]ncc2c1)c3ccc(Cl)c(Cl)c3

>  <Data Validity Comment>  (593) 
nan

>  <Document Journal>  (593) 
nan

>  <Document Year>  (593) 
nan

>  <SRC ID>  (593) 
7

>  <UO Units>  (593) 
UO_0000065

>  <Potential Duplicate>  (593) 
False

>  <Class>  (593) 
0

$$$$

     RDKit          2D

 26 27  0  0  0  0  0  0  0  0999 V2000
    5.2500   -1.2990    0.0000 C   0  0  0  0  0  0  0  0  0  0  0  0
    3.7500   -1.2990    0.0000 C   0  0  0  0  0  0  0  0  0  0  0  0
    3.0000    0.0000    0.0000 O   0  0  0  0  0  0  0  0  0  0  0  0
    1.5000    0.0000    0.0000 C   0  0  0  0  0  0  0  0  0  0  0  0
    0.7500   -1.2990    0.0000 N   0  0  0  0  0  0  0  0  0  0  0  0
   -0.7500   -1.2990    0.0000 C   0  0  0  0  0  0  0  0  0  0  0  0
   -1.5000    0.0000    0.0000 C   0  0  0  0  0  0  0  0  0  0  0  0
   -0.7500    1.2990    0.0000 C   0  0  0  0  0  0  0  0  0  0  0  0
   -1.5000    2.5981    0.0000 N   0  0  0  0  0  0  0  0  0  0  0  0
    0.7500    1.2990    0.0000 C   0  0  0  0  0  0  0  0  0  0  0  0
    1.5000    2.5981    0.0000 C   0  0  0  0  0  0  0  0  0  0  0  0
    2.2500    3.8971    0.0000 N   0  0  0  0  0  0  0  0  0  0  0  0
   -1.5000   -2.5981    0.0000 C   0  0  0  0  0  0  0  0  0  0  0  0
   -0.7500   -3.8971    0.0000 O   0  0  0  0  0  0  0  0  0  0  0  0
   -3.0000   -2.5981    0.0000 N   0  0  0  0  0  0  0  0  0  0  0  0
   -3.7500   -3.8971    0.0000 C   0  0  0  0  0  0  0  0  0  0  0  0
   -5.2500   -3.8971    0.0000 C   0  0  0  0  0  0  0  0  0  0  0  0
   -6.0000   -2.5981    0.0000 C   0  0  0  0  0  0  0  0  0  0  0  0
   -7.5000   -2.5981    0.0000 C   0  0  0  0  0  0  0  0  0  0  0  0
   -8.2500   -3.8971    0.0000 C   0  0  0  0  0  0  0  0  0  0  0  0
   -7.5000   -5.1962    0.0000 C   0  0  0  0  0  0  0  0  0  0  0  0
   -6.0000   -5.1962    0.0000 C   0  0  0  0  0  0  0  0  0  0  0  0
   -9.7500   -3.8971    0.0000 S   0  0  0  0  0  0  0  0  0  0  0  0
   -9.7500   -2.3971    0.0000 O   0  0  0  0  0  0  0  0  0  0  0  0
   -9.7500   -5.3971    0.0000 O   0  0  0  0  0  0  0  0  0  0  0  0
  -11.2500   -3.8971    0.0000 N   0  0  0  0  0  0  0  0  0  0  0  0
  1  2  1  0
  2  3  1  0
  3  4  1  0
  4  5  2  0
  5  6  1  0
  6  7  2  0
  7  8  1  0
  8  9  1  0
  8 10  2  0
 10 11  1  0
 11 12  3  0
  6 13  1  0
 13 14  2  0
 13 15  1  0
 15 16  1  0
 16 17  1  0
 17 18  2  0
 18 19  1  0
 19 20  2  0
 20 21  1  0
 21 22  2  0
 20 23  1  0
 23 24  2  0
 23 25  2  0
 23 26  1  0
 10  4  1  0
 22 17  1  0
M  END
>  <Molecule>  (594) 
CHEMBL2004355

>  <Standard Type>  (594) 
Ki

>  <Standard Relation>  (594) 
>

>  <Standard Value>  (594) 
1584.89

>  <Standard Units>  (594) 
nM

>  <pChEMBL Value>  (594) 
nan

>  <Comment>  (594) 
inactive

>  <Compound Key>  (594) 
SID103905187

>  <Assay>  (594) 
CHEMBL1963742

>  <Assay Description>  (594) 
PUBCHEM_BIOASSAY: Navigating the Kinome. (Class of assay: other) Panel member name: JAK3

>  <BAO Format>  (594) 
assay format

>  <Target>  (594) 
CHEMBL2148

>  <Target Pref. Name>  (594) 
Tyrosine-protein kinase JAK3

>  <Target Organism>  (594) 
Homo sapiens

>  <Target Type>  (594) 
SINGLE PROTEIN

>  <Document>  (594) 
CHEMBL1201862

>  <Source>  (594) 
PubChem BioAssays

>  <Max Phase>  (594) 
0

>  <#Ro5 Violations>  (594) 
0

>  <Molecular Weight>  (594) 
375.41

>  <Ligand Efficiency BEI>  (594) 
nan

>  <Ligand Efficiency LE>  (594) 
nan

>  <Ligand Efficiency LLE>  (594) 
nan

>  <Ligand Efficiency SEI>  (594) 
nan

>  <ALogP>  (594) 
0.51

>  <Assay Organism>  (594) 
nan

>  <Assay Tissue ChEMBL ID>  (594) 
nan

>  <Assay Tissue Name>  (594) 
nan

>  <Assay Cell Type>  (594) 
nan

>  <Assay Subcellular Fraction>  (594) 
nan

>  <Organism Tax ID>  (594) 
9606

>  <BAO Format ID>  (594) 
BAO_0000019

>  <Published Type>  (594) 
nan

>  <Published Relation>  (594) 
nan

>  <Published Value>  (594) 
nan

>  <Published Units>  (594) 
nan

>  <Canonical Smiles>  (594) 
CCOc1nc(cc(N)c1C#N)C(=O)NCc2ccc(cc2)S(=O)(=O)N

>  <Data Validity Comment>  (594) 
nan

>  <Document Journal>  (594) 
nan

>  <Document Year>  (594) 
nan

>  <SRC ID>  (594) 
7

>  <UO Units>  (594) 
UO_0000065

>  <Potential Duplicate>  (594) 
False

>  <Class>  (594) 
0

$$$$

     RDKit          2D

 35 39  0  0  0  0  0  0  0  0999 V2000
   -0.7500   -9.0933    0.0000 C   0  0  0  0  0  0  0  0  0  0  0  0
   -1.5000   -7.7942    0.0000 N   0  0  0  0  0  0  0  0  0  0  0  0
   -3.0000   -7.7942    0.0000 C   0  0  0  0  0  0  0  0  0  0  0  0
   -3.7500   -6.4952    0.0000 N   0  0  0  0  0  0  0  0  0  0  0  0
   -3.0000   -5.1962    0.0000 C   0  0  0  0  0  0  0  0  0  0  0  0
   -1.5000   -5.1962    0.0000 C   0  0  0  0  0  0  0  0  0  0  0  0
   -0.7500   -6.4952    0.0000 C   0  0  0  0  0  0  0  0  0  0  0  0
    0.7500   -6.4952    0.0000 O   0  0  0  0  0  0  0  0  0  0  0  0
   -0.7500   -3.8971    0.0000 C   0  0  0  0  0  0  0  0  0  0  0  0
    0.7500   -3.8971    0.0000 C   0  0  0  0  0  0  0  0  0  0  0  0
    1.5000   -2.5981    0.0000 C   0  0  0  0  0  0  0  0  0  0  0  0
    0.7500   -1.2990    0.0000 C   0  0  0  0  0  0  0  0  0  0  0  0
    1.5000    0.0000    0.0000 C   0  0  0  0  0  0  0  0  0  0  0  0
    0.7500    1.2990    0.0000 C   0  0  0  0  0  0  0  0  0  0  0  0
   -0.7500    1.2990    0.0000 C   0  0  0  0  0  0  0  0  0  0  0  0
   -1.5000    0.0000    0.0000 C   0  0  0  0  0  0  0  0  0  0  0  0
   -0.7500   -1.2990    0.0000 C   0  0  0  0  0  0  0  0  0  0  0  0
   -1.5000   -2.5981    0.0000 C   0  0  0  0  0  0  0  0  0  0  0  0
   -3.7500   -3.8971    0.0000 C   0  0  0  0  0  0  0  0  0  0  0  0
   -3.0000   -2.5981    0.0000 C   0  0  0  0  0  0  0  0  0  0  0  0
   -3.7500   -1.2990    0.0000 C   0  0  0  0  0  0  0  0  0  0  0  0
   -5.2500   -1.2990    0.0000 N   0  0  0  0  0  0  0  0  0  0  0  0
   -6.0000   -2.5981    0.0000 C   0  0  0  0  0  0  0  0  0  0  0  0
   -5.2500   -3.8971    0.0000 C   0  0  0  0  0  0  0  0  0  0  0  0
   -3.7500   -9.0933    0.0000 N   0  0  0  0  0  0  0  0  0  0  0  0
   -5.2500   -9.0933    0.0000 C   0  0  0  0  0  0  0  0  0  0  0  0
   -6.0000  -10.3923    0.0000 C   0  0  0  0  0  0  0  0  0  0  0  0
   -5.2500  -11.6913    0.0000 N   0  0  0  0  0  0  0  0  0  0  0  0
   -7.5000  -10.3923    0.0000 C   0  0  0  0  0  0  0  0  0  0  0  0
   -8.2500  -11.6913    0.0000 C   0  0  0  0  0  0  0  0  0  0  0  0
   -9.7500  -11.6913    0.0000 C   0  0  0  0  0  0  0  0  0  0  0  0
  -10.5000  -12.9904    0.0000 C   0  0  0  0  0  0  0  0  0  0  0  0
   -9.7500  -14.2894    0.0000 C   0  0  0  0  0  0  0  0  0  0  0  0
   -8.2500  -14.2894    0.0000 C   0  0  0  0  0  0  0  0  0  0  0  0
   -7.5000  -12.9904    0.0000 C   0  0  0  0  0  0  0  0  0  0  0  0
  1  2  1  0
  2  3  1  0
  3  4  2  0
  4  5  1  0
  5  6  2  0
  6  7  1  0
  7  8  2  0
  6  9  1  0
  9 10  2  0
 10 11  1  0
 11 12  2  0
 12 13  1  0
 13 14  2  0
 14 15  1  0
 15 16  2  0
 16 17  1  0
 17 18  2  0
  5 19  1  0
 19 20  2  0
 20 21  1  0
 21 22  2  0
 22 23  1  0
 23 24  2  0
  3 25  1  0
 25 26  1  0
 26 27  1  0
 27 28  1  0
 27 29  1  0
 29 30  1  0
 30 31  2  0
 31 32  1  0
 32 33  2  0
 33 34  1  0
 34 35  2  0
  7  2  1  0
 18  9  1  0
 17 12  1  0
 24 19  1  0
 35 30  1  0
M  END
>  <Molecule>  (595) 
CHEMBL1990496

>  <Standard Type>  (595) 
Ki

>  <Standard Relation>  (595) 
>

>  <Standard Value>  (595) 
3162.28

>  <Standard Units>  (595) 
nM

>  <pChEMBL Value>  (595) 
nan

>  <Comment>  (595) 
inactive

>  <Compound Key>  (595) 
SID103905562

>  <Assay>  (595) 
CHEMBL1963742

>  <Assay Description>  (595) 
PUBCHEM_BIOASSAY: Navigating the Kinome. (Class of assay: other) Panel member name: JAK3

>  <BAO Format>  (595) 
assay format

>  <Target>  (595) 
CHEMBL2148

>  <Target Pref. Name>  (595) 
Tyrosine-protein kinase JAK3

>  <Target Organism>  (595) 
Homo sapiens

>  <Target Type>  (595) 
SINGLE PROTEIN

>  <Document>  (595) 
CHEMBL1201862

>  <Source>  (595) 
PubChem BioAssays

>  <Max Phase>  (595) 
0

>  <#Ro5 Violations>  (595) 
0

>  <Molecular Weight>  (595) 
461.57

>  <Ligand Efficiency BEI>  (595) 
nan

>  <Ligand Efficiency LE>  (595) 
nan

>  <Ligand Efficiency LLE>  (595) 
nan

>  <Ligand Efficiency SEI>  (595) 
nan

>  <ALogP>  (595) 
4.64

>  <Assay Organism>  (595) 
nan

>  <Assay Tissue ChEMBL ID>  (595) 
nan

>  <Assay Tissue Name>  (595) 
nan

>  <Assay Cell Type>  (595) 
nan

>  <Assay Subcellular Fraction>  (595) 
nan

>  <Organism Tax ID>  (595) 
9606

>  <BAO Format ID>  (595) 
BAO_0000019

>  <Published Type>  (595) 
nan

>  <Published Relation>  (595) 
nan

>  <Published Value>  (595) 
nan

>  <Published Units>  (595) 
nan

>  <Canonical Smiles>  (595) 
CN1C(=NC(=C(C1=O)c2ccc3ccccc3c2)c4ccncc4)NCC(N)Cc5ccccc5

>  <Data Validity Comment>  (595) 
nan

>  <Document Journal>  (595) 
nan

>  <Document Year>  (595) 
nan

>  <SRC ID>  (595) 
7

>  <UO Units>  (595) 
UO_0000065

>  <Potential Duplicate>  (595) 
False

>  <Class>  (595) 
0

$$$$

     RDKit          2D

 26 28  0  0  0  0  0  0  0  0999 V2000
    3.7500   -1.2990    0.0000 O   0  0  0  0  0  0  0  0  0  0  0  0
    3.0000    0.0000    0.0000 C   0  0  0  0  0  0  0  0  0  0  0  0
    3.7500    1.2990    0.0000 O   0  0  0  0  0  0  0  0  0  0  0  0
    1.5000    0.0000    0.0000 C   0  0  0  0  0  0  0  0  0  0  0  0
    0.7500   -1.2990    0.0000 C   0  0  0  0  0  0  0  0  0  0  0  0
   -0.7500   -1.2990    0.0000 C   0  0  0  0  0  0  0  0  0  0  0  0
   -1.5000    0.0000    0.0000 C   0  0  0  0  0  0  0  0  0  0  0  0
   -0.7500    1.2990    0.0000 C   0  0  0  0  0  0  0  0  0  0  0  0
    0.7500    1.2990    0.0000 C   0  0  0  0  0  0  0  0  0  0  0  0
    1.5000    2.5981    0.0000 N   0  0  0  0  0  0  0  0  0  0  0  0
    0.7500    3.8971    0.0000 C   0  0  0  0  0  0  0  0  0  0  0  0
    1.5000    5.1962    0.0000 C   0  0  0  0  0  0  0  0  0  0  0  0
    0.7500    6.4952    0.0000 C   0  0  0  0  0  0  0  0  0  0  0  0
   -0.7500    6.4952    0.0000 N   0  0  0  0  0  0  0  0  0  0  0  0
   -1.5000    5.1962    0.0000 C   0  0  0  0  0  0  0  0  0  0  0  0
   -3.0000    5.1962    0.0000 N   0  0  0  0  0  0  0  0  0  0  0  0
   -3.7500    6.4952    0.0000 C   0  0  0  0  0  0  0  0  0  0  0  0
   -3.0000    7.7942    0.0000 C   0  0  0  0  0  0  0  0  0  0  0  0
   -3.7500    9.0933    0.0000 C   0  0  0  0  0  0  0  0  0  0  0  0
   -5.2500    9.0933    0.0000 C   0  0  0  0  0  0  0  0  0  0  0  0
   -6.0000    7.7942    0.0000 C   0  0  0  0  0  0  0  0  0  0  0  0
   -5.2500    6.4952    0.0000 C   0  0  0  0  0  0  0  0  0  0  0  0
   -6.0000   10.3923    0.0000 N   0  0  0  0  0  0  0  0  0  0  0  0
   -7.5000   10.3923    0.0000 O   0  0  0  0  0  0  0  0  0  0  0  0
   -5.2500   11.6913    0.0000 O   0  0  0  0  0  0  0  0  0  0  0  0
   -0.7500    3.8971    0.0000 N   0  0  0  0  0  0  0  0  0  0  0  0
  1  2  1  0
  2  3  2  0
  2  4  1  0
  4  5  2  0
  5  6  1  0
  6  7  2  0
  7  8  1  0
  8  9  2  0
  9 10  1  0
 10 11  1  0
 11 12  2  0
 12 13  1  0
 13 14  2  0
 14 15  1  0
 15 16  1  0
 16 17  1  0
 17 18  2  0
 18 19  1  0
 19 20  2  0
 20 21  1  0
 21 22  2  0
 20 23  1  0
 23 24  2  0
 23 25  1  0
 15 26  2  0
  9  4  1  0
 26 11  1  0
 22 17  1  0
M  CHG  2  23   1  25  -1
M  END
>  <Molecule>  (596) 
CHEMBL242865

>  <Standard Type>  (596) 
Ki

>  <Standard Relation>  (596) 
=

>  <Standard Value>  (596) 
794.33

>  <Standard Units>  (596) 
nM

>  <pChEMBL Value>  (596) 
6.1

>  <Comment>  (596) 
active

>  <Compound Key>  (596) 
SID103904590

>  <Assay>  (596) 
CHEMBL1963742

>  <Assay Description>  (596) 
PUBCHEM_BIOASSAY: Navigating the Kinome. (Class of assay: other) Panel member name: JAK3

>  <BAO Format>  (596) 
assay format

>  <Target>  (596) 
CHEMBL2148

>  <Target Pref. Name>  (596) 
Tyrosine-protein kinase JAK3

>  <Target Organism>  (596) 
Homo sapiens

>  <Target Type>  (596) 
SINGLE PROTEIN

>  <Document>  (596) 
CHEMBL1201862

>  <Source>  (596) 
PubChem BioAssays

>  <Max Phase>  (596) 
0

>  <#Ro5 Violations>  (596) 
0

>  <Molecular Weight>  (596) 
351.32

>  <Ligand Efficiency BEI>  (596) 
nan

>  <Ligand Efficiency LE>  (596) 
nan

>  <Ligand Efficiency LLE>  (596) 
nan

>  <Ligand Efficiency SEI>  (596) 
nan

>  <ALogP>  (596) 
3.57

>  <Assay Organism>  (596) 
nan

>  <Assay Tissue ChEMBL ID>  (596) 
nan

>  <Assay Tissue Name>  (596) 
nan

>  <Assay Cell Type>  (596) 
nan

>  <Assay Subcellular Fraction>  (596) 
nan

>  <Organism Tax ID>  (596) 
9606

>  <BAO Format ID>  (596) 
BAO_0000019

>  <Published Type>  (596) 
nan

>  <Published Relation>  (596) 
nan

>  <Published Value>  (596) 
nan

>  <Published Units>  (596) 
nan

>  <Canonical Smiles>  (596) 
OC(=O)c1ccccc1Nc2ccnc(Nc3ccc(cc3)[N+](=O)[O-])n2

>  <Data Validity Comment>  (596) 
nan

>  <Document Journal>  (596) 
nan

>  <Document Year>  (596) 
nan

>  <SRC ID>  (596) 
7

>  <UO Units>  (596) 
UO_0000065

>  <Potential Duplicate>  (596) 
False

>  <Class>  (596) 
1

$$$$

     RDKit          2D

 31 36  0  0  0  0  0  0  0  0999 V2000
   11.1150   -4.1209    0.0000 F   0  0  0  0  0  0  0  0  0  0  0  0
   10.3650   -2.8219    0.0000 C   0  0  0  0  0  0  0  0  0  0  0  0
   11.1150   -1.5229    0.0000 C   0  0  0  0  0  0  0  0  0  0  0  0
   10.3650   -0.2238    0.0000 C   0  0  0  0  0  0  0  0  0  0  0  0
    8.8650   -0.2238    0.0000 C   0  0  0  0  0  0  0  0  0  0  0  0
    7.8613    0.8909    0.0000 N   0  0  0  0  0  0  0  0  0  0  0  0
    6.4910    0.2808    0.0000 C   0  0  0  0  0  0  0  0  0  0  0  0
    6.6478   -1.2110    0.0000 N   0  0  0  0  0  0  0  0  0  0  0  0
    5.5331   -2.2147    0.0000 C   0  0  0  0  0  0  0  0  0  0  0  0
    5.8450   -3.6819    0.0000 N   0  0  0  0  0  0  0  0  0  0  0  0
    4.7302   -4.6856    0.0000 C   0  0  0  0  0  0  0  0  0  0  0  0
    3.3037   -4.2221    0.0000 C   0  0  0  0  0  0  0  0  0  0  0  0
    2.0046   -4.9721    0.0000 N   0  0  0  0  0  0  0  0  0  0  0  0
    0.8899   -3.9684    0.0000 C   0  0  0  0  0  0  0  0  0  0  0  0
   -0.5773   -4.2803    0.0000 O   0  0  0  0  0  0  0  0  0  0  0  0
    1.5000   -2.5981    0.0000 N   0  0  0  0  0  0  0  0  0  0  0  0
    0.7500   -1.2990    0.0000 C   0  0  0  0  0  0  0  0  0  0  0  0
    1.5000    0.0000    0.0000 C   0  0  0  0  0  0  0  0  0  0  0  0
    0.7500    1.2990    0.0000 C   0  0  0  0  0  0  0  0  0  0  0  0
   -0.7500    1.2990    0.0000 O   0  0  0  0  0  0  0  0  0  0  0  0
   -1.5000    0.0000    0.0000 C   0  0  0  0  0  0  0  0  0  0  0  0
   -3.0000    0.0000    0.0000 C   0  0  0  0  0  0  0  0  0  0  0  0
   -3.7500    1.2990    0.0000 F   0  0  0  0  0  0  0  0  0  0  0  0
   -3.7500   -1.2990    0.0000 C   0  0  0  0  0  0  0  0  0  0  0  0
   -3.0000   -2.5981    0.0000 C   0  0  0  0  0  0  0  0  0  0  0  0
   -1.5000   -2.5981    0.0000 C   0  0  0  0  0  0  0  0  0  0  0  0
   -0.7500   -1.2990    0.0000 C   0  0  0  0  0  0  0  0  0  0  0  0
    2.9918   -2.7549    0.0000 C   0  0  0  0  0  0  0  0  0  0  0  0
    4.1065   -1.7512    0.0000 N   0  0  0  0  0  0  0  0  0  0  0  0
    8.1150   -1.5229    0.0000 C   0  0  0  0  0  0  0  0  0  0  0  0
    8.8650   -2.8219    0.0000 C   0  0  0  0  0  0  0  0  0  0  0  0
  1  2  1  0
  2  3  2  0
  3  4  1  0
  4  5  2  0
  5  6  1  0
  6  7  2  0
  7  8  1  0
  8  9  1  0
  9 10  2  0
 10 11  1  0
 11 12  2  0
 12 13  1  0
 13 14  1  0
 14 15  2  0
 14 16  1  0
 16 17  1  0
 17 18  1  0
 18 19  1  0
 19 20  1  0
 20 21  1  0
 21 22  2  0
 22 23  1  0
 22 24  1  0
 24 25  2  0
 25 26  1  0
 26 27  2  0
 16 28  1  0
 28 29  2  0
  8 30  1  0
 30 31  2  0
 31  2  1  0
 30  5  1  0
 29  9  1  0
 28 12  1  0
 27 17  1  0
 27 21  1  0
M  END
>  <Molecule>  (597) 
CHEMBL2000393

>  <Standard Type>  (597) 
Ki

>  <Standard Relation>  (597) 
=

>  <Standard Value>  (597) 
5.012

>  <Standard Units>  (597) 
nM

>  <pChEMBL Value>  (597) 
8.3

>  <Comment>  (597) 
active

>  <Compound Key>  (597) 
SID103905603

>  <Assay>  (597) 
CHEMBL1963742

>  <Assay Description>  (597) 
PUBCHEM_BIOASSAY: Navigating the Kinome. (Class of assay: other) Panel member name: JAK3

>  <BAO Format>  (597) 
assay format

>  <Target>  (597) 
CHEMBL2148

>  <Target Pref. Name>  (597) 
Tyrosine-protein kinase JAK3

>  <Target Organism>  (597) 
Homo sapiens

>  <Target Type>  (597) 
SINGLE PROTEIN

>  <Document>  (597) 
CHEMBL1201862

>  <Source>  (597) 
PubChem BioAssays

>  <Max Phase>  (597) 
0

>  <#Ro5 Violations>  (597) 
0

>  <Molecular Weight>  (597) 
420.38

>  <Ligand Efficiency BEI>  (597) 
nan

>  <Ligand Efficiency LE>  (597) 
nan

>  <Ligand Efficiency LLE>  (597) 
nan

>  <Ligand Efficiency SEI>  (597) 
nan

>  <ALogP>  (597) 
3.11

>  <Assay Organism>  (597) 
nan

>  <Assay Tissue ChEMBL ID>  (597) 
nan

>  <Assay Tissue Name>  (597) 
nan

>  <Assay Cell Type>  (597) 
nan

>  <Assay Subcellular Fraction>  (597) 
nan

>  <Organism Tax ID>  (597) 
9606

>  <BAO Format ID>  (597) 
BAO_0000019

>  <Published Type>  (597) 
nan

>  <Published Relation>  (597) 
nan

>  <Published Value>  (597) 
nan

>  <Published Units>  (597) 
nan

>  <Canonical Smiles>  (597) 
Fc1ccc2ncn(c3ncc4NC(=O)N(C5CCOc6c(F)cccc56)c4n3)c2c1

>  <Data Validity Comment>  (597) 
nan

>  <Document Journal>  (597) 
nan

>  <Document Year>  (597) 
nan

>  <SRC ID>  (597) 
7

>  <UO Units>  (597) 
UO_0000065

>  <Potential Duplicate>  (597) 
False

>  <Class>  (597) 
1

$$$$

     RDKit          2D

 29 32  0  0  0  0  0  0  0  0999 V2000
    3.7500  -14.2894    0.0000 C   0  0  0  0  0  0  0  0  0  0  0  0
    3.0000  -12.9904    0.0000 C   0  0  0  0  0  0  0  0  0  0  0  0
    1.5000  -12.9904    0.0000 C   0  0  0  0  0  0  0  0  0  0  0  0
    0.7500  -11.6913    0.0000 C   0  0  0  0  0  0  0  0  0  0  0  0
   -0.7500  -11.6913    0.0000 C   0  0  0  0  0  0  0  0  0  0  0  0
    1.5000  -10.3923    0.0000 C   0  0  0  0  0  0  0  0  0  0  0  0
    3.0000  -10.3923    0.0000 C   0  0  0  0  0  0  0  0  0  0  0  0
    3.7500   -9.0933    0.0000 N   0  0  0  0  0  0  0  0  0  0  0  0
    3.0000   -7.7942    0.0000 C   0  0  0  0  0  0  0  0  0  0  0  0
    1.5000   -7.7942    0.0000 O   0  0  0  0  0  0  0  0  0  0  0  0
    3.7500   -6.4952    0.0000 N   0  0  0  0  0  0  0  0  0  0  0  0
    3.0000   -5.1962    0.0000 C   0  0  0  0  0  0  0  0  0  0  0  0
    3.7500   -3.8971    0.0000 C   0  0  0  0  0  0  0  0  0  0  0  0
    3.0000   -2.5981    0.0000 C   0  0  0  0  0  0  0  0  0  0  0  0
    1.5000   -2.5981    0.0000 C   0  0  0  0  0  0  0  0  0  0  0  0
    0.7500   -3.8971    0.0000 C   0  0  0  0  0  0  0  0  0  0  0  0
   -0.7500   -3.8971    0.0000 C   0  0  0  0  0  0  0  0  0  0  0  0
    1.5000   -5.1962    0.0000 C   0  0  0  0  0  0  0  0  0  0  0  0
    0.7500   -1.2990    0.0000 C   0  0  0  0  0  0  0  0  0  0  0  0
    1.5000    0.0000    0.0000 C   0  0  0  0  0  0  0  0  0  0  0  0
    0.7500    1.2990    0.0000 C   0  0  0  0  0  0  0  0  0  0  0  0
   -0.7500    1.2990    0.0000 C   0  0  0  0  0  0  0  0  0  0  0  0
   -1.5000    0.0000    0.0000 C   0  0  0  0  0  0  0  0  0  0  0  0
   -2.9672   -0.3119    0.0000 C   0  0  0  0  0  0  0  0  0  0  0  0
   -4.0819    0.6918    0.0000 O   0  0  0  0  0  0  0  0  0  0  0  0
   -3.1240   -1.8037    0.0000 N   0  0  0  0  0  0  0  0  0  0  0  0
   -1.7537   -2.4138    0.0000 C   0  0  0  0  0  0  0  0  0  0  0  0
   -0.7500   -1.2990    0.0000 C   0  0  0  0  0  0  0  0  0  0  0  0
    3.7500  -11.6913    0.0000 C   0  0  0  0  0  0  0  0  0  0  0  0
  1  2  1  0
  2  3  2  0
  3  4  1  0
  4  5  1  0
  4  6  2  0
  6  7  1  0
  7  8  1  0
  8  9  1  0
  9 10  2  0
  9 11  1  0
 11 12  1  0
 12 13  2  0
 13 14  1  0
 14 15  2  0
 15 16  1  0
 16 17  1  0
 16 18  2  0
 15 19  1  0
 19 20  2  0
 20 21  1  0
 21 22  2  0
 22 23  1  0
 23 24  1  0
 24 25  2  0
 24 26  1  0
 26 27  1  0
 27 28  1  0
  7 29  2  0
 29  2  1  0
 18 12  1  0
 28 19  1  0
 28 23  2  0
M  END
>  <Molecule>  (598) 
CHEMBL2004311

>  <Standard Type>  (598) 
Ki

>  <Standard Relation>  (598) 
>

>  <Standard Value>  (598) 
1584.89

>  <Standard Units>  (598) 
nM

>  <pChEMBL Value>  (598) 
nan

>  <Comment>  (598) 
inactive

>  <Compound Key>  (598) 
SID103904278

>  <Assay>  (598) 
CHEMBL1963742

>  <Assay Description>  (598) 
PUBCHEM_BIOASSAY: Navigating the Kinome. (Class of assay: other) Panel member name: JAK3

>  <BAO Format>  (598) 
assay format

>  <Target>  (598) 
CHEMBL2148

>  <Target Pref. Name>  (598) 
Tyrosine-protein kinase JAK3

>  <Target Organism>  (598) 
Homo sapiens

>  <Target Type>  (598) 
SINGLE PROTEIN

>  <Document>  (598) 
CHEMBL1201862

>  <Source>  (598) 
PubChem BioAssays

>  <Max Phase>  (598) 
0

>  <#Ro5 Violations>  (598) 
1

>  <Molecular Weight>  (598) 
385.47

>  <Ligand Efficiency BEI>  (598) 
nan

>  <Ligand Efficiency LE>  (598) 
nan

>  <Ligand Efficiency LLE>  (598) 
nan

>  <Ligand Efficiency SEI>  (598) 
nan

>  <ALogP>  (598) 
5.17

>  <Assay Organism>  (598) 
nan

>  <Assay Tissue ChEMBL ID>  (598) 
nan

>  <Assay Tissue Name>  (598) 
nan

>  <Assay Cell Type>  (598) 
nan

>  <Assay Subcellular Fraction>  (598) 
nan

>  <Organism Tax ID>  (598) 
9606

>  <BAO Format ID>  (598) 
BAO_0000019

>  <Published Type>  (598) 
nan

>  <Published Relation>  (598) 
nan

>  <Published Value>  (598) 
nan

>  <Published Units>  (598) 
nan

>  <Canonical Smiles>  (598) 
Cc1cc(C)cc(NC(=O)Nc2ccc(c(C)c2)c3cccc4C(=O)NCc34)c1

>  <Data Validity Comment>  (598) 
nan

>  <Document Journal>  (598) 
nan

>  <Document Year>  (598) 
nan

>  <SRC ID>  (598) 
7

>  <UO Units>  (598) 
UO_0000065

>  <Potential Duplicate>  (598) 
False

>  <Class>  (598) 
0

$$$$

     RDKit          2D

 16 18  0  0  0  0  0  0  0  0999 V2000
    3.0000    0.0000    0.0000 Br  0  0  0  0  0  0  0  0  0  0  0  0
    1.5000    0.0000    0.0000 C   0  0  0  0  0  0  0  0  0  0  0  0
    0.7500   -1.2990    0.0000 C   0  0  0  0  0  0  0  0  0  0  0  0
   -0.7500   -1.2990    0.0000 N   0  0  0  0  0  0  0  0  0  0  0  0
   -1.5000    0.0000    0.0000 C   0  0  0  0  0  0  0  0  0  0  0  0
   -2.9672    0.3119    0.0000 N   0  0  0  0  0  0  0  0  0  0  0  0
   -3.1240    1.8037    0.0000 C   0  0  0  0  0  0  0  0  0  0  0  0
   -1.7537    2.4138    0.0000 C   0  0  0  0  0  0  0  0  0  0  0  0
   -1.4418    3.8810    0.0000 C   0  0  0  0  0  0  0  0  0  0  0  0
   -0.0152    4.3445    0.0000 C   0  0  0  0  0  0  0  0  0  0  0  0
    0.2966    5.8117    0.0000 C   0  0  0  0  0  0  0  0  0  0  0  0
   -0.8181    6.8154    0.0000 C   0  0  0  0  0  0  0  0  0  0  0  0
   -2.2447    6.3519    0.0000 C   0  0  0  0  0  0  0  0  0  0  0  0
   -2.5565    4.8847    0.0000 C   0  0  0  0  0  0  0  0  0  0  0  0
   -0.7500    1.2990    0.0000 C   0  0  0  0  0  0  0  0  0  0  0  0
    0.7500    1.2990    0.0000 C   0  0  0  0  0  0  0  0  0  0  0  0
  1  2  1  0
  2  3  2  0
  3  4  1  0
  4  5  2  0
  5  6  1  0
  6  7  1  0
  7  8  2  0
  8  9  1  0
  9 10  2  0
 10 11  1  0
 11 12  2  0
 12 13  1  0
 13 14  2  0
  8 15  1  0
 15 16  2  0
 16  2  1  0
 15  5  1  0
 14  9  1  0
M  END
>  <Molecule>  (599) 
CHEMBL1992634

>  <Standard Type>  (599) 
Ki

>  <Standard Relation>  (599) 
=

>  <Standard Value>  (599) 
501.19

>  <Standard Units>  (599) 
nM

>  <pChEMBL Value>  (599) 
6.3

>  <Comment>  (599) 
active

>  <Compound Key>  (599) 
SID103904215

>  <Assay>  (599) 
CHEMBL1963742

>  <Assay Description>  (599) 
PUBCHEM_BIOASSAY: Navigating the Kinome. (Class of assay: other) Panel member name: JAK3

>  <BAO Format>  (599) 
assay format

>  <Target>  (599) 
CHEMBL2148

>  <Target Pref. Name>  (599) 
Tyrosine-protein kinase JAK3

>  <Target Organism>  (599) 
Homo sapiens

>  <Target Type>  (599) 
SINGLE PROTEIN

>  <Document>  (599) 
CHEMBL1201862

>  <Source>  (599) 
PubChem BioAssays

>  <Max Phase>  (599) 
0

>  <#Ro5 Violations>  (599) 
0

>  <Molecular Weight>  (599) 
273.13

>  <Ligand Efficiency BEI>  (599) 
nan

>  <Ligand Efficiency LE>  (599) 
nan

>  <Ligand Efficiency LLE>  (599) 
nan

>  <Ligand Efficiency SEI>  (599) 
nan

>  <ALogP>  (599) 
3.99

>  <Assay Organism>  (599) 
nan

>  <Assay Tissue ChEMBL ID>  (599) 
nan

>  <Assay Tissue Name>  (599) 
nan

>  <Assay Cell Type>  (599) 
nan

>  <Assay Subcellular Fraction>  (599) 
nan

>  <Organism Tax ID>  (599) 
9606

>  <BAO Format ID>  (599) 
BAO_0000019

>  <Published Type>  (599) 
nan

>  <Published Relation>  (599) 
nan

>  <Published Value>  (599) 
nan

>  <Published Units>  (599) 
nan

>  <Canonical Smiles>  (599) 
Brc1cnc2[nH]cc(c3ccccc3)c2c1

>  <Data Validity Comment>  (599) 
nan

>  <Document Journal>  (599) 
nan

>  <Document Year>  (599) 
nan

>  <SRC ID>  (599) 
7

>  <UO Units>  (599) 
UO_0000065

>  <Potential Duplicate>  (599) 
False

>  <Class>  (599) 
1

$$$$

     RDKit          2D

 29 33  0  0  0  0  0  0  0  0999 V2000
    1.5000  -10.3923    0.0000 C   0  0  0  0  0  0  0  0  0  0  0  0
    0.7500   -9.0933    0.0000 C   0  0  0  0  0  0  0  0  0  0  0  0
   -0.7500   -9.0933    0.0000 C   0  0  0  0  0  0  0  0  0  0  0  0
   -1.5000   -7.7942    0.0000 C   0  0  0  0  0  0  0  0  0  0  0  0
   -0.7500   -6.4952    0.0000 C   0  0  0  0  0  0  0  0  0  0  0  0
    0.7500   -6.4952    0.0000 C   0  0  0  0  0  0  0  0  0  0  0  0
    1.5000   -5.1962    0.0000 N   0  0  0  0  0  0  0  0  0  0  0  0
    0.7500   -3.8971    0.0000 C   0  0  0  0  0  0  0  0  0  0  0  0
   -0.7500   -3.8971    0.0000 O   0  0  0  0  0  0  0  0  0  0  0  0
    1.5000   -2.5981    0.0000 N   0  0  0  0  0  0  0  0  0  0  0  0
    0.7500   -1.2990    0.0000 C   0  0  0  0  0  0  0  0  0  0  0  0
    1.5000    0.0000    0.0000 C   0  0  0  0  0  0  0  0  0  0  0  0
    0.7500    1.2990    0.0000 C   0  0  0  0  0  0  0  0  0  0  0  0
   -0.7500    1.2990    0.0000 C   0  0  0  0  0  0  0  0  0  0  0  0
   -1.5000    0.0000    0.0000 C   0  0  0  0  0  0  0  0  0  0  0  0
   -3.0000    0.0000    0.0000 C   0  0  0  0  0  0  0  0  0  0  0  0
   -3.7500    1.2990    0.0000 C   0  0  0  0  0  0  0  0  0  0  0  0
   -3.0000    2.5981    0.0000 C   0  0  0  0  0  0  0  0  0  0  0  0
   -3.4635    4.0247    0.0000 S   0  0  0  0  0  0  0  0  0  0  0  0
   -2.2500    4.9063    0.0000 C   0  0  0  0  0  0  0  0  0  0  0  0
   -2.0932    6.3981    0.0000 N   0  0  0  0  0  0  0  0  0  0  0  0
   -0.7229    7.0082    0.0000 C   0  0  0  0  0  0  0  0  0  0  0  0
    0.4906    6.1265    0.0000 N   0  0  0  0  0  0  0  0  0  0  0  0
    0.3338    4.6348    0.0000 C   0  0  0  0  0  0  0  0  0  0  0  0
    1.5474    3.7531    0.0000 N   0  0  0  0  0  0  0  0  0  0  0  0
   -1.0365    4.0247    0.0000 C   0  0  0  0  0  0  0  0  0  0  0  0
   -1.5000    2.5981    0.0000 C   0  0  0  0  0  0  0  0  0  0  0  0
   -0.7500   -1.2990    0.0000 C   0  0  0  0  0  0  0  0  0  0  0  0
    1.5000   -7.7942    0.0000 C   0  0  0  0  0  0  0  0  0  0  0  0
  1  2  1  0
  2  3  2  0
  3  4  1  0
  4  5  2  0
  5  6  1  0
  6  7  1  0
  7  8  1  0
  8  9  2  0
  8 10  1  0
 10 11  1  0
 11 12  2  0
 12 13  1  0
 13 14  2  0
 14 15  1  0
 15 16  1  0
 16 17  1  0
 17 18  1  0
 18 19  1  0
 19 20  1  0
 20 21  2  0
 21 22  1  0
 22 23  2  0
 23 24  1  0
 24 25  1  0
 24 26  2  0
 26 27  1  0
 15 28  2  0
  6 29  2  0
 29  2  1  0
 28 11  1  0
 27 14  1  0
 27 18  2  0
 26 20  1  0
M  END
>  <Molecule>  (600) 
CHEMBL1242373

>  <Standard Type>  (600) 
Ki

>  <Standard Relation>  (600) 
>

>  <Standard Value>  (600) 
1584.89

>  <Standard Units>  (600) 
nM

>  <pChEMBL Value>  (600) 
nan

>  <Comment>  (600) 
inactive

>  <Compound Key>  (600) 
SID103904348

>  <Assay>  (600) 
CHEMBL1963742

>  <Assay Description>  (600) 
PUBCHEM_BIOASSAY: Navigating the Kinome. (Class of assay: other) Panel member name: JAK3

>  <BAO Format>  (600) 
assay format

>  <Target>  (600) 
CHEMBL2148

>  <Target Pref. Name>  (600) 
Tyrosine-protein kinase JAK3

>  <Target Organism>  (600) 
Homo sapiens

>  <Target Type>  (600) 
SINGLE PROTEIN

>  <Document>  (600) 
CHEMBL1201862

>  <Source>  (600) 
PubChem BioAssays

>  <Max Phase>  (600) 
0

>  <#Ro5 Violations>  (600) 
0

>  <Molecular Weight>  (600) 
401.5

>  <Ligand Efficiency BEI>  (600) 
nan

>  <Ligand Efficiency LE>  (600) 
nan

>  <Ligand Efficiency LLE>  (600) 
nan

>  <Ligand Efficiency SEI>  (600) 
nan

>  <ALogP>  (600) 
4.99

>  <Assay Organism>  (600) 
nan

>  <Assay Tissue ChEMBL ID>  (600) 
nan

>  <Assay Tissue Name>  (600) 
nan

>  <Assay Cell Type>  (600) 
nan

>  <Assay Subcellular Fraction>  (600) 
nan

>  <Organism Tax ID>  (600) 
9606

>  <BAO Format ID>  (600) 
BAO_0000019

>  <Published Type>  (600) 
nan

>  <Published Relation>  (600) 
nan

>  <Published Value>  (600) 
nan

>  <Published Units>  (600) 
nan

>  <Canonical Smiles>  (600) 
Cc1cccc(NC(=O)Nc2ccc3c(CCc4sc5ncnc(N)c5c34)c2)c1

>  <Data Validity Comment>  (600) 
nan

>  <Document Journal>  (600) 
nan

>  <Document Year>  (600) 
nan

>  <SRC ID>  (600) 
7

>  <UO Units>  (600) 
UO_0000065

>  <Potential Duplicate>  (600) 
False

>  <Class>  (600) 
0

$$$$

     RDKit          2D

 29 32  0  0  0  0  0  0  0  0999 V2000
    3.0000    0.0000    0.0000 N   0  0  0  0  0  0  0  0  0  0  0  0
    1.5000    0.0000    0.0000 C   0  0  0  0  0  0  0  0  0  0  0  0
    0.7500   -1.2990    0.0000 N   0  0  0  0  0  0  0  0  0  0  0  0
   -0.7500   -1.2990    0.0000 C   0  0  0  0  0  0  0  0  0  0  0  0
   -1.5000    0.0000    0.0000 N   0  0  0  0  0  0  0  0  0  0  0  0
   -0.7500    1.2990    0.0000 C   0  0  0  0  0  0  0  0  0  0  0  0
   -1.2135    2.7256    0.0000 S   0  0  0  0  0  0  0  0  0  0  0  0
   -0.0000    3.6073    0.0000 C   0  0  0  0  0  0  0  0  0  0  0  0
    1.2135    2.7256    0.0000 C   0  0  0  0  0  0  0  0  0  0  0  0
    2.6401    3.1891    0.0000 C   0  0  0  0  0  0  0  0  0  0  0  0
    3.7548    2.1855    0.0000 O   0  0  0  0  0  0  0  0  0  0  0  0
    2.9520    4.6564    0.0000 N   0  0  0  0  0  0  0  0  0  0  0  0
    4.3786    5.1199    0.0000 C   0  0  0  0  0  0  0  0  0  0  0  0
    5.4933    4.1162    0.0000 C   0  0  0  0  0  0  0  0  0  0  0  0
    6.9199    4.5797    0.0000 C   0  0  0  0  0  0  0  0  0  0  0  0
    7.2317    6.0469    0.0000 C   0  0  0  0  0  0  0  0  0  0  0  0
    8.6583    6.5105    0.0000 N   0  0  0  0  0  0  0  0  0  0  0  0
    9.7730    5.5068    0.0000 C   0  0  0  0  0  0  0  0  0  0  0  0
    9.4612    4.0396    0.0000 O   0  0  0  0  0  0  0  0  0  0  0  0
   11.1996    5.9703    0.0000 N   0  0  0  0  0  0  0  0  0  0  0  0
   12.3143    4.9666    0.0000 C   0  0  0  0  0  0  0  0  0  0  0  0
   12.0025    3.4994    0.0000 C   0  0  0  0  0  0  0  0  0  0  0  0
   13.1172    2.4957    0.0000 C   0  0  0  0  0  0  0  0  0  0  0  0
   14.5438    2.9592    0.0000 C   0  0  0  0  0  0  0  0  0  0  0  0
   14.8556    4.4264    0.0000 C   0  0  0  0  0  0  0  0  0  0  0  0
   13.7409    5.4301    0.0000 C   0  0  0  0  0  0  0  0  0  0  0  0
    6.1170    7.0506    0.0000 C   0  0  0  0  0  0  0  0  0  0  0  0
    4.6904    6.5871    0.0000 C   0  0  0  0  0  0  0  0  0  0  0  0
    0.7500    1.2990    0.0000 C   0  0  0  0  0  0  0  0  0  0  0  0
  1  2  1  0
  2  3  2  0
  3  4  1  0
  4  5  2  0
  5  6  1  0
  6  7  1  0
  7  8  1  0
  8  9  2  0
  9 10  1  0
 10 11  2  0
 10 12  1  0
 12 13  1  0
 13 14  2  0
 14 15  1  0
 15 16  2  0
 16 17  1  0
 17 18  1  0
 18 19  2  0
 18 20  1  0
 20 21  1  0
 21 22  2  0
 22 23  1  0
 23 24  2  0
 24 25  1  0
 25 26  2  0
 16 27  1  0
 27 28  2  0
  9 29  1  0
 29  2  1  0
 29  6  2  0
 28 13  1  0
 26 21  1  0
M  END
>  <Molecule>  (601) 
CHEMBL1988594

>  <Standard Type>  (601) 
Ki

>  <Standard Relation>  (601) 
=

>  <Standard Value>  (601) 
1000.0

>  <Standard Units>  (601) 
nM

>  <pChEMBL Value>  (601) 
6.0

>  <Comment>  (601) 
active

>  <Compound Key>  (601) 
SID103904352

>  <Assay>  (601) 
CHEMBL1963742

>  <Assay Description>  (601) 
PUBCHEM_BIOASSAY: Navigating the Kinome. (Class of assay: other) Panel member name: JAK3

>  <BAO Format>  (601) 
assay format

>  <Target>  (601) 
CHEMBL2148

>  <Target Pref. Name>  (601) 
Tyrosine-protein kinase JAK3

>  <Target Organism>  (601) 
Homo sapiens

>  <Target Type>  (601) 
SINGLE PROTEIN

>  <Document>  (601) 
CHEMBL1201862

>  <Source>  (601) 
PubChem BioAssays

>  <Max Phase>  (601) 
0

>  <#Ro5 Violations>  (601) 
0

>  <Molecular Weight>  (601) 
404.46

>  <Ligand Efficiency BEI>  (601) 
nan

>  <Ligand Efficiency LE>  (601) 
nan

>  <Ligand Efficiency LLE>  (601) 
nan

>  <Ligand Efficiency SEI>  (601) 
nan

>  <ALogP>  (601) 
4.17

>  <Assay Organism>  (601) 
nan

>  <Assay Tissue ChEMBL ID>  (601) 
nan

>  <Assay Tissue Name>  (601) 
nan

>  <Assay Cell Type>  (601) 
nan

>  <Assay Subcellular Fraction>  (601) 
nan

>  <Organism Tax ID>  (601) 
9606

>  <BAO Format ID>  (601) 
BAO_0000019

>  <Published Type>  (601) 
nan

>  <Published Relation>  (601) 
nan

>  <Published Value>  (601) 
nan

>  <Published Units>  (601) 
nan

>  <Canonical Smiles>  (601) 
Nc1ncnc2scc(C(=O)Nc3ccc(NC(=O)Nc4ccccc4)cc3)c12

>  <Data Validity Comment>  (601) 
nan

>  <Document Journal>  (601) 
nan

>  <Document Year>  (601) 
nan

>  <SRC ID>  (601) 
7

>  <UO Units>  (601) 
UO_0000065

>  <Potential Duplicate>  (601) 
False

>  <Class>  (601) 
1

$$$$

     RDKit          2D

 18 20  0  0  0  0  0  0  0  0999 V2000
   -5.7221   -1.8037    0.0000 N   0  0  0  0  0  0  0  0  0  0  0  0
   -4.4231   -2.5537    0.0000 C   0  0  0  0  0  0  0  0  0  0  0  0
   -4.4231   -4.0537    0.0000 O   0  0  0  0  0  0  0  0  0  0  0  0
   -3.1240   -1.8037    0.0000 C   0  0  0  0  0  0  0  0  0  0  0  0
   -1.7537   -2.4138    0.0000 C   0  0  0  0  0  0  0  0  0  0  0  0
   -0.7500   -1.2990    0.0000 C   0  0  0  0  0  0  0  0  0  0  0  0
    0.7500   -1.2990    0.0000 C   0  0  0  0  0  0  0  0  0  0  0  0
    1.5000    0.0000    0.0000 C   0  0  0  0  0  0  0  0  0  0  0  0
    0.7500    1.2990    0.0000 N   0  0  0  0  0  0  0  0  0  0  0  0
   -0.7500    1.2990    0.0000 C   0  0  0  0  0  0  0  0  0  0  0  0
   -1.5000    0.0000    0.0000 C   0  0  0  0  0  0  0  0  0  0  0  0
   -2.9672   -0.3119    0.0000 S   0  0  0  0  0  0  0  0  0  0  0  0
    1.5000   -2.5981    0.0000 C   0  0  0  0  0  0  0  0  0  0  0  0
    0.7500   -3.8971    0.0000 C   0  0  0  0  0  0  0  0  0  0  0  0
    1.5000   -5.1962    0.0000 C   0  0  0  0  0  0  0  0  0  0  0  0
    3.0000   -5.1962    0.0000 C   0  0  0  0  0  0  0  0  0  0  0  0
    3.7500   -3.8971    0.0000 C   0  0  0  0  0  0  0  0  0  0  0  0
    3.0000   -2.5981    0.0000 C   0  0  0  0  0  0  0  0  0  0  0  0
  1  2  1  0
  2  3  2  0
  2  4  1  0
  4  5  2  0
  5  6  1  0
  6  7  2  0
  7  8  1  0
  8  9  2  0
  9 10  1  0
 10 11  2  0
 11 12  1  0
  7 13  1  0
 13 14  2  0
 14 15  1  0
 15 16  2  0
 16 17  1  0
 17 18  2  0
 12  4  1  0
 11  6  1  0
 18 13  1  0
M  END
>  <Molecule>  (602) 
CHEMBL1999556

>  <Standard Type>  (602) 
Ki

>  <Standard Relation>  (602) 
=

>  <Standard Value>  (602) 
1000.0

>  <Standard Units>  (602) 
nM

>  <pChEMBL Value>  (602) 
6.0

>  <Comment>  (602) 
active

>  <Compound Key>  (602) 
SID103905041

>  <Assay>  (602) 
CHEMBL1963742

>  <Assay Description>  (602) 
PUBCHEM_BIOASSAY: Navigating the Kinome. (Class of assay: other) Panel member name: JAK3

>  <BAO Format>  (602) 
assay format

>  <Target>  (602) 
CHEMBL2148

>  <Target Pref. Name>  (602) 
Tyrosine-protein kinase JAK3

>  <Target Organism>  (602) 
Homo sapiens

>  <Target Type>  (602) 
SINGLE PROTEIN

>  <Document>  (602) 
CHEMBL1201862

>  <Source>  (602) 
PubChem BioAssays

>  <Max Phase>  (602) 
0

>  <#Ro5 Violations>  (602) 
0

>  <Molecular Weight>  (602) 
254.31

>  <Ligand Efficiency BEI>  (602) 
nan

>  <Ligand Efficiency LE>  (602) 
nan

>  <Ligand Efficiency LLE>  (602) 
nan

>  <Ligand Efficiency SEI>  (602) 
nan

>  <ALogP>  (602) 
3.06

>  <Assay Organism>  (602) 
nan

>  <Assay Tissue ChEMBL ID>  (602) 
nan

>  <Assay Tissue Name>  (602) 
nan

>  <Assay Cell Type>  (602) 
nan

>  <Assay Subcellular Fraction>  (602) 
nan

>  <Organism Tax ID>  (602) 
9606

>  <BAO Format ID>  (602) 
BAO_0000019

>  <Published Type>  (602) 
nan

>  <Published Relation>  (602) 
nan

>  <Published Value>  (602) 
nan

>  <Published Units>  (602) 
nan

>  <Canonical Smiles>  (602) 
NC(=O)c1cc2c(cncc2s1)c3ccccc3

>  <Data Validity Comment>  (602) 
nan

>  <Document Journal>  (602) 
nan

>  <Document Year>  (602) 
nan

>  <SRC ID>  (602) 
7

>  <UO Units>  (602) 
UO_0000065

>  <Potential Duplicate>  (602) 
False

>  <Class>  (602) 
1

$$$$

     RDKit          2D

 28 30  0  0  0  0  0  0  0  0999 V2000
    1.7745   13.9550    0.0000 C   0  0  0  0  0  0  0  0  0  0  0  0
    1.4627   12.4878    0.0000 C   0  0  0  0  0  0  0  0  0  0  0  0
    0.0361   12.0242    0.0000 C   0  0  0  0  0  0  0  0  0  0  0  0
   -0.2758   10.5570    0.0000 N   0  0  0  0  0  0  0  0  0  0  0  0
   -1.7024   10.0935    0.0000 C   0  0  0  0  0  0  0  0  0  0  0  0
   -2.8171   11.0972    0.0000 O   0  0  0  0  0  0  0  0  0  0  0  0
   -2.0143    8.6263    0.0000 C   0  0  0  0  0  0  0  0  0  0  0  0
   -0.8995    7.6226    0.0000 C   0  0  0  0  0  0  0  0  0  0  0  0
   -1.2114    6.1554    0.0000 C   0  0  0  0  0  0  0  0  0  0  0  0
   -2.6380    5.6918    0.0000 C   0  0  0  0  0  0  0  0  0  0  0  0
   -2.9499    4.2246    0.0000 N   0  0  0  0  0  0  0  0  0  0  0  0
   -1.8351    3.2209    0.0000 C   0  0  0  0  0  0  0  0  0  0  0  0
   -0.4086    3.6844    0.0000 N   0  0  0  0  0  0  0  0  0  0  0  0
    0.7062    2.6807    0.0000 C   0  0  0  0  0  0  0  0  0  0  0  0
    2.1328    3.1443    0.0000 N   0  0  0  0  0  0  0  0  0  0  0  0
    2.4446    4.6115    0.0000 C   0  0  0  0  0  0  0  0  0  0  0  0
    3.8712    5.0750    0.0000 C   0  0  0  0  0  0  0  0  0  0  0  0
    5.2978    5.5385    0.0000 F   0  0  0  0  0  0  0  0  0  0  0  0
    3.4077    6.5016    0.0000 F   0  0  0  0  0  0  0  0  0  0  0  0
    4.3347    3.6484    0.0000 F   0  0  0  0  0  0  0  0  0  0  0  0
    0.3943    1.2135    0.0000 C   0  0  0  0  0  0  0  0  0  0  0  0
    1.2760    0.0000    0.0000 C   0  0  0  0  0  0  0  0  0  0  0  0
    0.3943   -1.2135    0.0000 C   0  0  0  0  0  0  0  0  0  0  0  0
   -1.0323   -0.7500    0.0000 N   0  0  0  0  0  0  0  0  0  0  0  0
   -1.0323    0.7500    0.0000 C   0  0  0  0  0  0  0  0  0  0  0  0
   -2.1470    1.7537    0.0000 N   0  0  0  0  0  0  0  0  0  0  0  0
   -3.7527    6.6955    0.0000 C   0  0  0  0  0  0  0  0  0  0  0  0
   -3.4408    8.1628    0.0000 C   0  0  0  0  0  0  0  0  0  0  0  0
  1  2  1  0
  2  3  1  0
  3  4  1  0
  4  5  1  0
  5  6  2  0
  5  7  1  0
  7  8  2  0
  8  9  1  0
  9 10  2  0
 10 11  1  0
 11 12  1  0
 12 13  2  0
 13 14  1  0
 14 15  1  0
 15 16  1  0
 16 17  1  0
 17 18  1  0
 17 19  1  0
 17 20  1  0
 14 21  2  0
 21 22  1  0
 22 23  2  0
 23 24  1  0
 24 25  1  0
 25 26  2  0
 10 27  1  0
 27 28  2  0
 28  7  1  0
 26 12  1  0
 25 21  1  0
M  END
>  <Molecule>  (603) 
CHEMBL2006765

>  <Standard Type>  (603) 
Ki

>  <Standard Relation>  (603) 
=

>  <Standard Value>  (603) 
398.11

>  <Standard Units>  (603) 
nM

>  <pChEMBL Value>  (603) 
6.4

>  <Comment>  (603) 
active

>  <Compound Key>  (603) 
SID103904636

>  <Assay>  (603) 
CHEMBL1963742

>  <Assay Description>  (603) 
PUBCHEM_BIOASSAY: Navigating the Kinome. (Class of assay: other) Panel member name: JAK3

>  <BAO Format>  (603) 
assay format

>  <Target>  (603) 
CHEMBL2148

>  <Target Pref. Name>  (603) 
Tyrosine-protein kinase JAK3

>  <Target Organism>  (603) 
Homo sapiens

>  <Target Type>  (603) 
SINGLE PROTEIN

>  <Document>  (603) 
CHEMBL1201862

>  <Source>  (603) 
PubChem BioAssays

>  <Max Phase>  (603) 
0

>  <#Ro5 Violations>  (603) 
0

>  <Molecular Weight>  (603) 
392.39

>  <Ligand Efficiency BEI>  (603) 
nan

>  <Ligand Efficiency LE>  (603) 
nan

>  <Ligand Efficiency LLE>  (603) 
nan

>  <Ligand Efficiency SEI>  (603) 
nan

>  <ALogP>  (603) 
3.82

>  <Assay Organism>  (603) 
nan

>  <Assay Tissue ChEMBL ID>  (603) 
nan

>  <Assay Tissue Name>  (603) 
nan

>  <Assay Cell Type>  (603) 
nan

>  <Assay Subcellular Fraction>  (603) 
nan

>  <Organism Tax ID>  (603) 
9606

>  <BAO Format ID>  (603) 
BAO_0000019

>  <Published Type>  (603) 
nan

>  <Published Relation>  (603) 
nan

>  <Published Value>  (603) 
nan

>  <Published Units>  (603) 
nan

>  <Canonical Smiles>  (603) 
CCCNC(=O)c1ccc(Nc2nc(NCC(F)(F)F)c3cc[nH]c3n2)cc1

>  <Data Validity Comment>  (603) 
nan

>  <Document Journal>  (603) 
nan

>  <Document Year>  (603) 
nan

>  <SRC ID>  (603) 
7

>  <UO Units>  (603) 
UO_0000065

>  <Potential Duplicate>  (603) 
False

>  <Class>  (603) 
1

$$$$

     RDKit          2D

 30 33  0  0  0  0  0  0  0  0999 V2000
    3.0000    0.0000    0.0000 C   0  0  0  0  0  0  0  0  0  0  0  0
    1.5000    0.0000    0.0000 N   0  0  0  0  0  0  0  0  0  0  0  0
    0.7500   -1.2990    0.0000 C   0  0  0  0  0  0  0  0  0  0  0  0
   -0.7500   -1.2990    0.0000 C   0  0  0  0  0  0  0  0  0  0  0  0
   -1.5000    0.0000    0.0000 N   0  0  0  0  0  0  0  0  0  0  0  0
   -0.7500    1.2990    0.0000 C   0  0  0  0  0  0  0  0  0  0  0  0
    0.7500    1.2990    0.0000 C   0  0  0  0  0  0  0  0  0  0  0  0
   -3.0000    0.0000    0.0000 C   0  0  0  0  0  0  0  0  0  0  0  0
   -3.7500    1.2990    0.0000 C   0  0  0  0  0  0  0  0  0  0  0  0
   -5.2500    1.2990    0.0000 C   0  0  0  0  0  0  0  0  0  0  0  0
   -6.0000    0.0000    0.0000 C   0  0  0  0  0  0  0  0  0  0  0  0
   -7.5000    0.0000    0.0000 N   0  0  0  0  0  0  0  0  0  0  0  0
   -8.2500    1.2990    0.0000 C   0  0  0  0  0  0  0  0  0  0  0  0
   -9.7418    1.4558    0.0000 N   0  0  0  0  0  0  0  0  0  0  0  0
  -10.0537    2.9231    0.0000 C   0  0  0  0  0  0  0  0  0  0  0  0
  -11.4240    3.5332    0.0000 N   0  0  0  0  0  0  0  0  0  0  0  0
   -8.7546    3.6731    0.0000 C   0  0  0  0  0  0  0  0  0  0  0  0
   -7.6399    2.6694    0.0000 S   0  0  0  0  0  0  0  0  0  0  0  0
   -8.5978    5.1648    0.0000 C   0  0  0  0  0  0  0  0  0  0  0  0
   -9.8113    6.0465    0.0000 O   0  0  0  0  0  0  0  0  0  0  0  0
   -7.2275    5.7749    0.0000 C   0  0  0  0  0  0  0  0  0  0  0  0
   -6.0140    4.8933    0.0000 C   0  0  0  0  0  0  0  0  0  0  0  0
   -6.1708    3.4015    0.0000 Cl  0  0  0  0  0  0  0  0  0  0  0  0
   -4.6437    5.5034    0.0000 C   0  0  0  0  0  0  0  0  0  0  0  0
   -4.4869    6.9951    0.0000 C   0  0  0  0  0  0  0  0  0  0  0  0
   -5.7004    7.8768    0.0000 C   0  0  0  0  0  0  0  0  0  0  0  0
   -7.0707    7.2667    0.0000 C   0  0  0  0  0  0  0  0  0  0  0  0
   -8.2842    8.1484    0.0000 Cl  0  0  0  0  0  0  0  0  0  0  0  0
   -5.2500   -1.2990    0.0000 C   0  0  0  0  0  0  0  0  0  0  0  0
   -3.7500   -1.2990    0.0000 C   0  0  0  0  0  0  0  0  0  0  0  0
  1  2  1  0
  2  3  1  0
  3  4  1  0
  4  5  1  0
  5  6  1  0
  6  7  1  0
  5  8  1  0
  8  9  2  0
  9 10  1  0
 10 11  2  0
 11 12  1  0
 12 13  1  0
 13 14  2  0
 14 15  1  0
 15 16  1  0
 15 17  2  0
 17 18  1  0
 17 19  1  0
 19 20  2  0
 19 21  1  0
 21 22  2  0
 22 23  1  0
 22 24  1  0
 24 25  2  0
 25 26  1  0
 26 27  2  0
 27 28  1  0
 11 29  1  0
 29 30  2  0
  7  2  1  0
 30  8  1  0
 18 13  1  0
 27 21  1  0
M  END
>  <Molecule>  (604) 
CHEMBL1989043

>  <Standard Type>  (604) 
Ki

>  <Standard Relation>  (604) 
>

>  <Standard Value>  (604) 
5011.87

>  <Standard Units>  (604) 
nM

>  <pChEMBL Value>  (604) 
nan

>  <Comment>  (604) 
inactive

>  <Compound Key>  (604) 
SID103904413

>  <Assay>  (604) 
CHEMBL1963742

>  <Assay Description>  (604) 
PUBCHEM_BIOASSAY: Navigating the Kinome. (Class of assay: other) Panel member name: JAK3

>  <BAO Format>  (604) 
assay format

>  <Target>  (604) 
CHEMBL2148

>  <Target Pref. Name>  (604) 
Tyrosine-protein kinase JAK3

>  <Target Organism>  (604) 
Homo sapiens

>  <Target Type>  (604) 
SINGLE PROTEIN

>  <Document>  (604) 
CHEMBL1201862

>  <Source>  (604) 
PubChem BioAssays

>  <Max Phase>  (604) 
0

>  <#Ro5 Violations>  (604) 
0

>  <Molecular Weight>  (604) 
462.41

>  <Ligand Efficiency BEI>  (604) 
nan

>  <Ligand Efficiency LE>  (604) 
nan

>  <Ligand Efficiency LLE>  (604) 
nan

>  <Ligand Efficiency SEI>  (604) 
nan

>  <ALogP>  (604) 
4.76

>  <Assay Organism>  (604) 
nan

>  <Assay Tissue ChEMBL ID>  (604) 
nan

>  <Assay Tissue Name>  (604) 
nan

>  <Assay Cell Type>  (604) 
nan

>  <Assay Subcellular Fraction>  (604) 
nan

>  <Organism Tax ID>  (604) 
9606

>  <BAO Format ID>  (604) 
BAO_0000019

>  <Published Type>  (604) 
nan

>  <Published Relation>  (604) 
nan

>  <Published Value>  (604) 
nan

>  <Published Units>  (604) 
nan

>  <Canonical Smiles>  (604) 
CN1CCN(CC1)c2ccc(Nc3nc(N)c(s3)C(=O)c4c(Cl)cccc4Cl)cc2

>  <Data Validity Comment>  (604) 
nan

>  <Document Journal>  (604) 
nan

>  <Document Year>  (604) 
nan

>  <SRC ID>  (604) 
7

>  <UO Units>  (604) 
UO_0000065

>  <Potential Duplicate>  (604) 
False

>  <Class>  (604) 
0

$$$$

     RDKit          2D

 34 38  0  0  0  0  0  0  0  0999 V2000
   -3.5736    1.2902    0.0000 C   0  0  0  0  0  0  0  0  0  0  0  0
   -2.1470    1.7537    0.0000 C   0  0  0  0  0  0  0  0  0  0  0  0
   -1.8351    3.2209    0.0000 C   0  0  0  0  0  0  0  0  0  0  0  0
   -0.4086    3.6844    0.0000 C   0  0  0  0  0  0  0  0  0  0  0  0
    0.7062    2.6807    0.0000 C   0  0  0  0  0  0  0  0  0  0  0  0
    0.3943    1.2135    0.0000 C   0  0  0  0  0  0  0  0  0  0  0  0
    1.2760    0.0000    0.0000 N   0  0  0  0  0  0  0  0  0  0  0  0
    0.3943   -1.2135    0.0000 C   0  0  0  0  0  0  0  0  0  0  0  0
   -1.0323   -0.7500    0.0000 N   0  0  0  0  0  0  0  0  0  0  0  0
   -1.0323    0.7500    0.0000 C   0  0  0  0  0  0  0  0  0  0  0  0
    0.8578   -2.6401    0.0000 C   0  0  0  0  0  0  0  0  0  0  0  0
   -0.1459   -3.7548    0.0000 C   0  0  0  0  0  0  0  0  0  0  0  0
   -1.6131   -3.4430    0.0000 N   0  0  0  0  0  0  0  0  0  0  0  0
   -2.6168   -4.5577    0.0000 C   0  0  0  0  0  0  0  0  0  0  0  0
   -4.0840   -4.2458    0.0000 C   0  0  0  0  0  0  0  0  0  0  0  0
   -4.5475   -2.8192    0.0000 O   0  0  0  0  0  0  0  0  0  0  0  0
   -5.0877   -5.3605    0.0000 C   0  0  0  0  0  0  0  0  0  0  0  0
   -6.5549   -5.0487    0.0000 C   0  0  0  0  0  0  0  0  0  0  0  0
   -7.5586   -6.1634    0.0000 C   0  0  0  0  0  0  0  0  0  0  0  0
   -7.0951   -7.5900    0.0000 C   0  0  0  0  0  0  0  0  0  0  0  0
   -5.6279   -7.9018    0.0000 C   0  0  0  0  0  0  0  0  0  0  0  0
   -5.1644   -9.3284    0.0000 Cl  0  0  0  0  0  0  0  0  0  0  0  0
   -4.6242   -6.7871    0.0000 C   0  0  0  0  0  0  0  0  0  0  0  0
    0.3177   -5.1814    0.0000 C   0  0  0  0  0  0  0  0  0  0  0  0
    1.7849   -5.4933    0.0000 C   0  0  0  0  0  0  0  0  0  0  0  0
    2.7886   -4.3786    0.0000 N   0  0  0  0  0  0  0  0  0  0  0  0
    2.3250   -2.9520    0.0000 C   0  0  0  0  0  0  0  0  0  0  0  0
    3.3287   -1.8373    0.0000 O   0  0  0  0  0  0  0  0  0  0  0  0
   -0.0967    5.1517    0.0000 N   0  0  0  0  0  0  0  0  0  0  0  0
    1.3299    5.6152    0.0000 C   0  0  0  0  0  0  0  0  0  0  0  0
    1.6418    7.0824    0.0000 C   0  0  0  0  0  0  0  0  0  0  0  0
    0.5271    8.0861    0.0000 O   0  0  0  0  0  0  0  0  0  0  0  0
   -0.8995    7.6226    0.0000 C   0  0  0  0  0  0  0  0  0  0  0  0
   -1.2114    6.1554    0.0000 C   0  0  0  0  0  0  0  0  0  0  0  0
  1  2  1  0
  2  3  2  0
  3  4  1  0
  4  5  2  0
  5  6  1  0
  6  7  1  0
  7  8  1  0
  8  9  2  0
  9 10  1  0
  8 11  1  0
 11 12  2  0
 12 13  1  0
 13 14  1  0
 14 15  1  0
 15 16  1  0
 15 17  1  0
 17 18  2  0
 18 19  1  0
 19 20  2  0
 20 21  1  0
 21 22  1  0
 21 23  2  0
 12 24  1  0
 24 25  2  0
 25 26  1  0
 26 27  1  0
 27 28  2  0
  4 29  1  0
 29 30  1  0
 30 31  1  0
 31 32  1  0
 32 33  1  0
 33 34  1  0
 10  2  1  0
 10  6  2  0
 27 11  1  0
 23 17  1  0
 34 29  1  0
M  END
>  <Molecule>  (605) 
CHEMBL2005886

>  <Standard Type>  (605) 
Ki

>  <Standard Relation>  (605) 
=

>  <Standard Value>  (605) 
158.49

>  <Standard Units>  (605) 
nM

>  <pChEMBL Value>  (605) 
6.8

>  <Comment>  (605) 
active

>  <Compound Key>  (605) 
SID103905488

>  <Assay>  (605) 
CHEMBL1963742

>  <Assay Description>  (605) 
PUBCHEM_BIOASSAY: Navigating the Kinome. (Class of assay: other) Panel member name: JAK3

>  <BAO Format>  (605) 
assay format

>  <Target>  (605) 
CHEMBL2148

>  <Target Pref. Name>  (605) 
Tyrosine-protein kinase JAK3

>  <Target Organism>  (605) 
Homo sapiens

>  <Target Type>  (605) 
SINGLE PROTEIN

>  <Document>  (605) 
CHEMBL1201862

>  <Source>  (605) 
PubChem BioAssays

>  <Max Phase>  (605) 
0

>  <#Ro5 Violations>  (605) 
0

>  <Molecular Weight>  (605) 
479.97

>  <Ligand Efficiency BEI>  (605) 
nan

>  <Ligand Efficiency LE>  (605) 
nan

>  <Ligand Efficiency LLE>  (605) 
nan

>  <Ligand Efficiency SEI>  (605) 
nan

>  <ALogP>  (605) 
3.86

>  <Assay Organism>  (605) 
nan

>  <Assay Tissue ChEMBL ID>  (605) 
nan

>  <Assay Tissue Name>  (605) 
nan

>  <Assay Cell Type>  (605) 
nan

>  <Assay Subcellular Fraction>  (605) 
nan

>  <Organism Tax ID>  (605) 
9606

>  <BAO Format ID>  (605) 
BAO_0000019

>  <Published Type>  (605) 
nan

>  <Published Relation>  (605) 
nan

>  <Published Value>  (605) 
nan

>  <Published Units>  (605) 
nan

>  <Canonical Smiles>  (605) 
Cc1cc(cc2[nH]c(nc12)C3=C(NCC(O)c4cccc(Cl)c4)C=CNC3=O)N5CCOCC5

>  <Data Validity Comment>  (605) 
nan

>  <Document Journal>  (605) 
nan

>  <Document Year>  (605) 
nan

>  <SRC ID>  (605) 
7

>  <UO Units>  (605) 
UO_0000065

>  <Potential Duplicate>  (605) 
False

>  <Class>  (605) 
1

$$$$

     RDKit          2D

 21 24  0  0  0  0  0  0  0  0999 V2000
   -4.4752    7.7937    0.0000 C   0  0  0  0  0  0  0  0  0  0  0  0
   -3.3605    8.7974    0.0000 C   0  0  0  0  0  0  0  0  0  0  0  0
   -1.9339    8.3339    0.0000 C   0  0  0  0  0  0  0  0  0  0  0  0
   -0.8192    9.3376    0.0000 C   0  0  0  0  0  0  0  0  0  0  0  0
   -1.1311   10.8048    0.0000 C   0  0  0  0  0  0  0  0  0  0  0  0
   -2.5577   11.2683    0.0000 C   0  0  0  0  0  0  0  0  0  0  0  0
   -3.6724   10.2646    0.0000 C   0  0  0  0  0  0  0  0  0  0  0  0
   -4.1634    6.3265    0.0000 N   0  0  0  0  0  0  0  0  0  0  0  0
   -2.7931    5.7164    0.0000 C   0  0  0  0  0  0  0  0  0  0  0  0
   -2.9499    4.2246    0.0000 C   0  0  0  0  0  0  0  0  0  0  0  0
   -4.4171    3.9127    0.0000 N   0  0  0  0  0  0  0  0  0  0  0  0
   -5.1671    5.2118    0.0000 N   0  0  0  0  0  0  0  0  0  0  0  0
   -1.8351    3.2209    0.0000 C   0  0  0  0  0  0  0  0  0  0  0  0
   -0.4086    3.6844    0.0000 C   0  0  0  0  0  0  0  0  0  0  0  0
    0.7062    2.6807    0.0000 C   0  0  0  0  0  0  0  0  0  0  0  0
    0.3943    1.2135    0.0000 C   0  0  0  0  0  0  0  0  0  0  0  0
    1.2760    0.0000    0.0000 N   0  0  0  0  0  0  0  0  0  0  0  0
    0.3943   -1.2135    0.0000 N   0  0  0  0  0  0  0  0  0  0  0  0
   -1.0323   -0.7500    0.0000 C   0  0  0  0  0  0  0  0  0  0  0  0
   -1.0323    0.7500    0.0000 C   0  0  0  0  0  0  0  0  0  0  0  0
   -2.1470    1.7537    0.0000 C   0  0  0  0  0  0  0  0  0  0  0  0
  1  2  1  0
  2  3  2  0
  3  4  1  0
  4  5  2  0
  5  6  1  0
  6  7  2  0
  1  8  1  0
  8  9  1  0
  9 10  2  0
 10 11  1  0
 11 12  2  0
 10 13  1  0
 13 14  2  0
 14 15  1  0
 15 16  2  0
 16 17  1  0
 17 18  1  0
 18 19  2  0
 19 20  1  0
 20 21  2  0
  7  2  1  0
 12  8  1  0
 21 13  1  0
 20 16  1  0
M  END
>  <Molecule>  (606) 
CHEMBL1682345

>  <Standard Type>  (606) 
Ki

>  <Standard Relation>  (606) 
=

>  <Standard Value>  (606) 
1000.0

>  <Standard Units>  (606) 
nM

>  <pChEMBL Value>  (606) 
6.0

>  <Comment>  (606) 
active

>  <Compound Key>  (606) 
SID103904508

>  <Assay>  (606) 
CHEMBL1963742

>  <Assay Description>  (606) 
PUBCHEM_BIOASSAY: Navigating the Kinome. (Class of assay: other) Panel member name: JAK3

>  <BAO Format>  (606) 
assay format

>  <Target>  (606) 
CHEMBL2148

>  <Target Pref. Name>  (606) 
Tyrosine-protein kinase JAK3

>  <Target Organism>  (606) 
Homo sapiens

>  <Target Type>  (606) 
SINGLE PROTEIN

>  <Document>  (606) 
CHEMBL1201862

>  <Source>  (606) 
PubChem BioAssays

>  <Max Phase>  (606) 
0

>  <#Ro5 Violations>  (606) 
0

>  <Molecular Weight>  (606) 
275.31

>  <Ligand Efficiency BEI>  (606) 
nan

>  <Ligand Efficiency LE>  (606) 
nan

>  <Ligand Efficiency LLE>  (606) 
nan

>  <Ligand Efficiency SEI>  (606) 
nan

>  <ALogP>  (606) 
2.87

>  <Assay Organism>  (606) 
nan

>  <Assay Tissue ChEMBL ID>  (606) 
nan

>  <Assay Tissue Name>  (606) 
nan

>  <Assay Cell Type>  (606) 
nan

>  <Assay Subcellular Fraction>  (606) 
nan

>  <Organism Tax ID>  (606) 
9606

>  <BAO Format ID>  (606) 
BAO_0000019

>  <Published Type>  (606) 
nan

>  <Published Relation>  (606) 
nan

>  <Published Value>  (606) 
nan

>  <Published Units>  (606) 
nan

>  <Canonical Smiles>  (606) 
C(c1ccccc1)n2cc(nn2)c3ccc4[nH]ncc4c3

>  <Data Validity Comment>  (606) 
nan

>  <Document Journal>  (606) 
nan

>  <Document Year>  (606) 
nan

>  <SRC ID>  (606) 
7

>  <UO Units>  (606) 
UO_0000065

>  <Potential Duplicate>  (606) 
False

>  <Class>  (606) 
1

$$$$

     RDKit          2D

 19 21  0  0  0  0  0  0  0  0999 V2000
   -4.6883    2.2939    0.0000 C   0  0  0  0  0  0  0  0  0  0  0  0
   -3.5736    1.2902    0.0000 C   0  0  0  0  0  0  0  0  0  0  0  0
   -2.1470    1.7537    0.0000 N   0  0  0  0  0  0  0  0  0  0  0  0
   -1.0323    0.7500    0.0000 C   0  0  0  0  0  0  0  0  0  0  0  0
    0.3943    1.2135    0.0000 C   0  0  0  0  0  0  0  0  0  0  0  0
    1.2760    0.0000    0.0000 C   0  0  0  0  0  0  0  0  0  0  0  0
    2.7760    0.0000    0.0000 O   0  0  0  0  0  0  0  0  0  0  0  0
    0.3943   -1.2135    0.0000 O   0  0  0  0  0  0  0  0  0  0  0  0
   -1.0323   -0.7500    0.0000 N   0  0  0  0  0  0  0  0  0  0  0  0
    0.7062    2.6807    0.0000 C   0  0  0  0  0  0  0  0  0  0  0  0
    2.1328    3.1443    0.0000 O   0  0  0  0  0  0  0  0  0  0  0  0
   -0.4086    3.6844    0.0000 C   0  0  0  0  0  0  0  0  0  0  0  0
   -0.0967    5.1517    0.0000 C   0  0  0  0  0  0  0  0  0  0  0  0
   -1.2114    6.1554    0.0000 C   0  0  0  0  0  0  0  0  0  0  0  0
   -0.8995    7.6226    0.0000 O   0  0  0  0  0  0  0  0  0  0  0  0
   -2.6380    5.6918    0.0000 C   0  0  0  0  0  0  0  0  0  0  0  0
   -3.7527    6.6955    0.0000 Cl  0  0  0  0  0  0  0  0  0  0  0  0
   -2.9499    4.2246    0.0000 C   0  0  0  0  0  0  0  0  0  0  0  0
   -1.8351    3.2209    0.0000 C   0  0  0  0  0  0  0  0  0  0  0  0
  1  2  1  0
  2  3  1  0
  3  4  1  0
  4  5  2  0
  5  6  1  0
  6  7  2  0
  6  8  1  0
  8  9  1  0
  5 10  1  0
 10 11  2  0
 10 12  1  0
 12 13  2  0
 13 14  1  0
 14 15  1  0
 14 16  2  0
 16 17  1  0
 16 18  1  0
 18 19  2  0
 19  3  1  0
  9  4  1  0
 19 12  1  0
M  END
>  <Molecule>  (607) 
CHEMBL523823

>  <Standard Type>  (607) 
Ki

>  <Standard Relation>  (607) 
>

>  <Standard Value>  (607) 
1584.89

>  <Standard Units>  (607) 
nM

>  <pChEMBL Value>  (607) 
nan

>  <Comment>  (607) 
inactive

>  <Compound Key>  (607) 
SID103905546

>  <Assay>  (607) 
CHEMBL1963742

>  <Assay Description>  (607) 
PUBCHEM_BIOASSAY: Navigating the Kinome. (Class of assay: other) Panel member name: JAK3

>  <BAO Format>  (607) 
assay format

>  <Target>  (607) 
CHEMBL2148

>  <Target Pref. Name>  (607) 
Tyrosine-protein kinase JAK3

>  <Target Organism>  (607) 
Homo sapiens

>  <Target Type>  (607) 
SINGLE PROTEIN

>  <Document>  (607) 
CHEMBL1201862

>  <Source>  (607) 
PubChem BioAssays

>  <Max Phase>  (607) 
0

>  <#Ro5 Violations>  (607) 
0

>  <Molecular Weight>  (607) 
280.67

>  <Ligand Efficiency BEI>  (607) 
nan

>  <Ligand Efficiency LE>  (607) 
nan

>  <Ligand Efficiency LLE>  (607) 
nan

>  <Ligand Efficiency SEI>  (607) 
nan

>  <ALogP>  (607) 
1.81

>  <Assay Organism>  (607) 
nan

>  <Assay Tissue ChEMBL ID>  (607) 
nan

>  <Assay Tissue Name>  (607) 
nan

>  <Assay Cell Type>  (607) 
nan

>  <Assay Subcellular Fraction>  (607) 
nan

>  <Organism Tax ID>  (607) 
9606

>  <BAO Format ID>  (607) 
BAO_0000019

>  <Published Type>  (607) 
nan

>  <Published Relation>  (607) 
nan

>  <Published Value>  (607) 
nan

>  <Published Units>  (607) 
nan

>  <Canonical Smiles>  (607) 
CCN1C2=C(C(=O)ON2)C(=O)c3cc(O)c(Cl)cc13

>  <Data Validity Comment>  (607) 
nan

>  <Document Journal>  (607) 
nan

>  <Document Year>  (607) 
nan

>  <SRC ID>  (607) 
7

>  <UO Units>  (607) 
UO_0000065

>  <Potential Duplicate>  (607) 
False

>  <Class>  (607) 
0

$$$$

     RDKit          2D

 26 27  0  0  0  0  0  0  0  0999 V2000
    5.2500   -1.2990    0.0000 C   0  0  0  0  0  0  0  0  0  0  0  0
    3.7500   -1.2990    0.0000 C   0  0  0  0  0  0  0  0  0  0  0  0
    3.0000    0.0000    0.0000 O   0  0  0  0  0  0  0  0  0  0  0  0
    1.5000    0.0000    0.0000 C   0  0  0  0  0  0  0  0  0  0  0  0
    0.7500   -1.2990    0.0000 N   0  0  0  0  0  0  0  0  0  0  0  0
   -0.7500   -1.2990    0.0000 C   0  0  0  0  0  0  0  0  0  0  0  0
   -1.5000   -2.5981    0.0000 N   0  0  0  0  0  0  0  0  0  0  0  0
   -3.0000   -2.5981    0.0000 C   0  0  0  0  0  0  0  0  0  0  0  0
   -3.7500   -1.2990    0.0000 O   0  0  0  0  0  0  0  0  0  0  0  0
   -3.7500   -3.8971    0.0000 C   0  0  0  0  0  0  0  0  0  0  0  0
   -5.2500   -3.8971    0.0000 C   0  0  0  0  0  0  0  0  0  0  0  0
   -6.0000   -2.5981    0.0000 C   0  0  0  0  0  0  0  0  0  0  0  0
   -7.5000   -2.5981    0.0000 C   0  0  0  0  0  0  0  0  0  0  0  0
   -8.2500   -1.2990    0.0000 O   0  0  0  0  0  0  0  0  0  0  0  0
   -7.5000    0.0000    0.0000 C   0  0  0  0  0  0  0  0  0  0  0  0
   -8.2500   -3.8971    0.0000 C   0  0  0  0  0  0  0  0  0  0  0  0
   -7.5000   -5.1962    0.0000 C   0  0  0  0  0  0  0  0  0  0  0  0
   -6.0000   -5.1962    0.0000 C   0  0  0  0  0  0  0  0  0  0  0  0
   -5.2500   -6.4952    0.0000 O   0  0  0  0  0  0  0  0  0  0  0  0
   -6.0000   -7.7942    0.0000 C   0  0  0  0  0  0  0  0  0  0  0  0
   -1.5000    0.0000    0.0000 C   0  0  0  0  0  0  0  0  0  0  0  0
   -0.7500    1.2990    0.0000 C   0  0  0  0  0  0  0  0  0  0  0  0
   -1.5000    2.5981    0.0000 N   0  0  0  0  0  0  0  0  0  0  0  0
    0.7500    1.2990    0.0000 C   0  0  0  0  0  0  0  0  0  0  0  0
    1.5000    2.5981    0.0000 C   0  0  0  0  0  0  0  0  0  0  0  0
    2.2500    3.8971    0.0000 N   0  0  0  0  0  0  0  0  0  0  0  0
  1  2  1  0
  2  3  1  0
  3  4  1  0
  4  5  2  0
  5  6  1  0
  6  7  1  0
  7  8  1  0
  8  9  2  0
  8 10  1  0
 10 11  1  0
 11 12  2  0
 12 13  1  0
 13 14  1  0
 14 15  1  0
 13 16  2  0
 16 17  1  0
 17 18  2  0
 18 19  1  0
 19 20  1  0
  6 21  2  0
 21 22  1  0
 22 23  1  0
 22 24  2  0
 24 25  1  0
 25 26  3  0
 24  4  1  0
 18 11  1  0
M  END
>  <Molecule>  (608) 
CHEMBL210618

>  <Standard Type>  (608) 
Ki

>  <Standard Relation>  (608) 
>

>  <Standard Value>  (608) 
1584.89

>  <Standard Units>  (608) 
nM

>  <pChEMBL Value>  (608) 
nan

>  <Comment>  (608) 
inactive

>  <Compound Key>  (608) 
SID103905189

>  <Assay>  (608) 
CHEMBL1963742

>  <Assay Description>  (608) 
PUBCHEM_BIOASSAY: Navigating the Kinome. (Class of assay: other) Panel member name: JAK3

>  <BAO Format>  (608) 
assay format

>  <Target>  (608) 
CHEMBL2148

>  <Target Pref. Name>  (608) 
Tyrosine-protein kinase JAK3

>  <Target Organism>  (608) 
Homo sapiens

>  <Target Type>  (608) 
SINGLE PROTEIN

>  <Document>  (608) 
CHEMBL1201862

>  <Source>  (608) 
PubChem BioAssays

>  <Max Phase>  (608) 
0

>  <#Ro5 Violations>  (608) 
0

>  <Molecular Weight>  (608) 
356.38

>  <Ligand Efficiency BEI>  (608) 
nan

>  <Ligand Efficiency LE>  (608) 
nan

>  <Ligand Efficiency LLE>  (608) 
nan

>  <Ligand Efficiency SEI>  (608) 
nan

>  <ALogP>  (608) 
2.13

>  <Assay Organism>  (608) 
nan

>  <Assay Tissue ChEMBL ID>  (608) 
nan

>  <Assay Tissue Name>  (608) 
nan

>  <Assay Cell Type>  (608) 
nan

>  <Assay Subcellular Fraction>  (608) 
nan

>  <Organism Tax ID>  (608) 
9606

>  <BAO Format ID>  (608) 
BAO_0000019

>  <Published Type>  (608) 
nan

>  <Published Relation>  (608) 
nan

>  <Published Value>  (608) 
nan

>  <Published Units>  (608) 
nan

>  <Canonical Smiles>  (608) 
CCOc1nc(NC(=O)Cc2cc(OC)ccc2OC)cc(N)c1C#N

>  <Data Validity Comment>  (608) 
nan

>  <Document Journal>  (608) 
nan

>  <Document Year>  (608) 
nan

>  <SRC ID>  (608) 
7

>  <UO Units>  (608) 
UO_0000065

>  <Potential Duplicate>  (608) 
False

>  <Class>  (608) 
0

$$$$

     RDKit          2D

 27 29  0  0  0  0  0  0  0  0999 V2000
   -2.5607   -7.0333    0.0000 O   0  0  0  0  0  0  0  0  0  0  0  0
   -1.0607   -7.0333    0.0000 C   0  0  0  0  0  0  0  0  0  0  0  0
   -0.3107   -8.3323    0.0000 O   0  0  0  0  0  0  0  0  0  0  0  0
   -0.3107   -5.7342    0.0000 C   0  0  0  0  0  0  0  0  0  0  0  0
   -0.6989   -4.2853    0.0000 C   0  0  0  0  0  0  0  0  0  0  0  0
    0.7500   -3.8971    0.0000 N   0  0  0  0  0  0  0  0  0  0  0  0
    1.5000   -2.5981    0.0000 C   0  0  0  0  0  0  0  0  0  0  0  0
    0.7500   -1.2990    0.0000 C   0  0  0  0  0  0  0  0  0  0  0  0
    1.5000    0.0000    0.0000 C   0  0  0  0  0  0  0  0  0  0  0  0
    0.7500    1.2990    0.0000 C   0  0  0  0  0  0  0  0  0  0  0  0
   -0.7500    1.2990    0.0000 C   0  0  0  0  0  0  0  0  0  0  0  0
   -1.5000    2.5981    0.0000 O   0  0  0  0  0  0  0  0  0  0  0  0
   -0.7500    3.8971    0.0000 C   0  0  0  0  0  0  0  0  0  0  0  0
   -1.5000    5.1962    0.0000 C   0  0  0  0  0  0  0  0  0  0  0  0
   -0.7500    6.4952    0.0000 C   0  0  0  0  0  0  0  0  0  0  0  0
   -1.5000    7.7942    0.0000 C   0  0  0  0  0  0  0  0  0  0  0  0
   -3.0000    7.7942    0.0000 C   0  0  0  0  0  0  0  0  0  0  0  0
   -3.7500    6.4952    0.0000 C   0  0  0  0  0  0  0  0  0  0  0  0
   -3.0000    5.1962    0.0000 C   0  0  0  0  0  0  0  0  0  0  0  0
   -5.2500    6.4952    0.0000 C   0  0  0  0  0  0  0  0  0  0  0  0
   -6.7500    6.4952    0.0000 F   0  0  0  0  0  0  0  0  0  0  0  0
   -5.2500    7.9952    0.0000 F   0  0  0  0  0  0  0  0  0  0  0  0
   -5.2500    4.9952    0.0000 F   0  0  0  0  0  0  0  0  0  0  0  0
   -1.5000    0.0000    0.0000 C   0  0  0  0  0  0  0  0  0  0  0  0
   -0.7500   -1.2990    0.0000 C   0  0  0  0  0  0  0  0  0  0  0  0
   -1.5000   -2.5981    0.0000 Cl  0  0  0  0  0  0  0  0  0  0  0  0
    1.1382   -5.3460    0.0000 C   0  0  0  0  0  0  0  0  0  0  0  0
  1  2  1  0
  2  3  2  0
  2  4  1  0
  4  5  1  0
  5  6  1  0
  6  7  1  0
  7  8  1  0
  8  9  2  0
  9 10  1  0
 10 11  2  0
 11 12  1  0
 12 13  1  0
 13 14  1  0
 14 15  2  0
 15 16  1  0
 16 17  2  0
 17 18  1  0
 18 19  2  0
 18 20  1  0
 20 21  1  0
 20 22  1  0
 20 23  1  0
 11 24  1  0
 24 25  2  0
 25 26  1  0
  6 27  1  0
 27  4  1  0
 25  8  1  0
 19 14  1  0
M  END
>  <Molecule>  (609) 
CHEMBL1986265

>  <Standard Type>  (609) 
Ki

>  <Standard Relation>  (609) 
>

>  <Standard Value>  (609) 
5011.87

>  <Standard Units>  (609) 
nM

>  <pChEMBL Value>  (609) 
nan

>  <Comment>  (609) 
inactive

>  <Compound Key>  (609) 
SID103904932

>  <Assay>  (609) 
CHEMBL1963742

>  <Assay Description>  (609) 
PUBCHEM_BIOASSAY: Navigating the Kinome. (Class of assay: other) Panel member name: JAK3

>  <BAO Format>  (609) 
assay format

>  <Target>  (609) 
CHEMBL2148

>  <Target Pref. Name>  (609) 
Tyrosine-protein kinase JAK3

>  <Target Organism>  (609) 
Homo sapiens

>  <Target Type>  (609) 
SINGLE PROTEIN

>  <Document>  (609) 
CHEMBL1201862

>  <Source>  (609) 
PubChem BioAssays

>  <Max Phase>  (609) 
0

>  <#Ro5 Violations>  (609) 
0

>  <Molecular Weight>  (609) 
399.8

>  <Ligand Efficiency BEI>  (609) 
nan

>  <Ligand Efficiency LE>  (609) 
nan

>  <Ligand Efficiency LLE>  (609) 
nan

>  <Ligand Efficiency SEI>  (609) 
nan

>  <ALogP>  (609) 
4.45

>  <Assay Organism>  (609) 
nan

>  <Assay Tissue ChEMBL ID>  (609) 
nan

>  <Assay Tissue Name>  (609) 
nan

>  <Assay Cell Type>  (609) 
nan

>  <Assay Subcellular Fraction>  (609) 
nan

>  <Organism Tax ID>  (609) 
9606

>  <BAO Format ID>  (609) 
BAO_0000019

>  <Published Type>  (609) 
nan

>  <Published Relation>  (609) 
nan

>  <Published Value>  (609) 
nan

>  <Published Units>  (609) 
nan

>  <Canonical Smiles>  (609) 
OC(=O)C1CN(Cc2ccc(OCc3cccc(c3)C(F)(F)F)cc2Cl)C1

>  <Data Validity Comment>  (609) 
nan

>  <Document Journal>  (609) 
nan

>  <Document Year>  (609) 
nan

>  <SRC ID>  (609) 
7

>  <UO Units>  (609) 
UO_0000065

>  <Potential Duplicate>  (609) 
False

>  <Class>  (609) 
0

$$$$

     RDKit          2D

 24 26  0  0  0  0  0  0  0  0999 V2000
    3.7500   -1.2990    0.0000 O   0  0  0  0  0  0  0  0  0  0  0  0
    3.0000    0.0000    0.0000 C   0  0  0  0  0  0  0  0  0  0  0  0
    3.7500    1.2990    0.0000 O   0  0  0  0  0  0  0  0  0  0  0  0
    1.5000    0.0000    0.0000 C   0  0  0  0  0  0  0  0  0  0  0  0
    0.7500   -1.2990    0.0000 C   0  0  0  0  0  0  0  0  0  0  0  0
   -0.7500   -1.2990    0.0000 C   0  0  0  0  0  0  0  0  0  0  0  0
   -1.5000    0.0000    0.0000 C   0  0  0  0  0  0  0  0  0  0  0  0
   -0.7500    1.2990    0.0000 C   0  0  0  0  0  0  0  0  0  0  0  0
    0.7500    1.2990    0.0000 C   0  0  0  0  0  0  0  0  0  0  0  0
    1.5000    2.5981    0.0000 N   0  0  0  0  0  0  0  0  0  0  0  0
    0.7500    3.8971    0.0000 C   0  0  0  0  0  0  0  0  0  0  0  0
    1.5000    5.1962    0.0000 C   0  0  0  0  0  0  0  0  0  0  0  0
    0.7500    6.4952    0.0000 C   0  0  0  0  0  0  0  0  0  0  0  0
   -0.7500    6.4952    0.0000 N   0  0  0  0  0  0  0  0  0  0  0  0
   -1.5000    5.1962    0.0000 C   0  0  0  0  0  0  0  0  0  0  0  0
   -3.0000    5.1962    0.0000 N   0  0  0  0  0  0  0  0  0  0  0  0
   -3.7500    6.4952    0.0000 C   0  0  0  0  0  0  0  0  0  0  0  0
   -3.0000    7.7942    0.0000 C   0  0  0  0  0  0  0  0  0  0  0  0
   -3.7500    9.0933    0.0000 C   0  0  0  0  0  0  0  0  0  0  0  0
   -5.2500    9.0933    0.0000 C   0  0  0  0  0  0  0  0  0  0  0  0
   -6.0000    7.7942    0.0000 C   0  0  0  0  0  0  0  0  0  0  0  0
   -7.5000    7.7942    0.0000 O   0  0  0  0  0  0  0  0  0  0  0  0
   -5.2500    6.4952    0.0000 C   0  0  0  0  0  0  0  0  0  0  0  0
   -0.7500    3.8971    0.0000 N   0  0  0  0  0  0  0  0  0  0  0  0
  1  2  1  0
  2  3  2  0
  2  4  1  0
  4  5  2  0
  5  6  1  0
  6  7  2  0
  7  8  1  0
  8  9  2  0
  9 10  1  0
 10 11  1  0
 11 12  2  0
 12 13  1  0
 13 14  2  0
 14 15  1  0
 15 16  1  0
 16 17  1  0
 17 18  2  0
 18 19  1  0
 19 20  2  0
 20 21  1  0
 21 22  1  0
 21 23  2  0
 15 24  2  0
  9  4  1  0
 24 11  1  0
 23 17  1  0
M  END
>  <Molecule>  (610) 
CHEMBL243088

>  <Standard Type>  (610) 
Ki

>  <Standard Relation>  (610) 
=

>  <Standard Value>  (610) 
25.12

>  <Standard Units>  (610) 
nM

>  <pChEMBL Value>  (610) 
7.6

>  <Comment>  (610) 
active

>  <Compound Key>  (610) 
SID103904594

>  <Assay>  (610) 
CHEMBL1963742

>  <Assay Description>  (610) 
PUBCHEM_BIOASSAY: Navigating the Kinome. (Class of assay: other) Panel member name: JAK3

>  <BAO Format>  (610) 
assay format

>  <Target>  (610) 
CHEMBL2148

>  <Target Pref. Name>  (610) 
Tyrosine-protein kinase JAK3

>  <Target Organism>  (610) 
Homo sapiens

>  <Target Type>  (610) 
SINGLE PROTEIN

>  <Document>  (610) 
CHEMBL1201862

>  <Source>  (610) 
PubChem BioAssays

>  <Max Phase>  (610) 
0

>  <#Ro5 Violations>  (610) 
0

>  <Molecular Weight>  (610) 
322.32

>  <Ligand Efficiency BEI>  (610) 
nan

>  <Ligand Efficiency LE>  (610) 
nan

>  <Ligand Efficiency LLE>  (610) 
nan

>  <Ligand Efficiency SEI>  (610) 
nan

>  <ALogP>  (610) 
3.37

>  <Assay Organism>  (610) 
nan

>  <Assay Tissue ChEMBL ID>  (610) 
nan

>  <Assay Tissue Name>  (610) 
nan

>  <Assay Cell Type>  (610) 
nan

>  <Assay Subcellular Fraction>  (610) 
nan

>  <Organism Tax ID>  (610) 
9606

>  <BAO Format ID>  (610) 
BAO_0000019

>  <Published Type>  (610) 
nan

>  <Published Relation>  (610) 
nan

>  <Published Value>  (610) 
nan

>  <Published Units>  (610) 
nan

>  <Canonical Smiles>  (610) 
OC(=O)c1ccccc1Nc2ccnc(Nc3cccc(O)c3)n2

>  <Data Validity Comment>  (610) 
nan

>  <Document Journal>  (610) 
nan

>  <Document Year>  (610) 
nan

>  <SRC ID>  (610) 
7

>  <UO Units>  (610) 
UO_0000065

>  <Potential Duplicate>  (610) 
False

>  <Class>  (610) 
1

$$$$

     RDKit          2D

 39 43  0  0  0  0  0  0  0  0999 V2000
   -0.7500   -6.4952    0.0000 C   0  0  0  0  0  0  0  0  0  0  0  0
    0.7500   -6.4952    0.0000 O   0  0  0  0  0  0  0  0  0  0  0  0
    1.5000   -5.1962    0.0000 C   0  0  0  0  0  0  0  0  0  0  0  0
    0.7500   -3.8971    0.0000 C   0  0  0  0  0  0  0  0  0  0  0  0
    1.5000   -2.5981    0.0000 C   0  0  0  0  0  0  0  0  0  0  0  0
    3.0000   -2.5981    0.0000 C   0  0  0  0  0  0  0  0  0  0  0  0
    3.7500   -3.8971    0.0000 C   0  0  0  0  0  0  0  0  0  0  0  0
    5.2500   -3.8971    0.0000 O   0  0  0  0  0  0  0  0  0  0  0  0
    6.0000   -5.1962    0.0000 C   0  0  0  0  0  0  0  0  0  0  0  0
    3.0000   -5.1962    0.0000 C   0  0  0  0  0  0  0  0  0  0  0  0
    3.7500   -6.4952    0.0000 O   0  0  0  0  0  0  0  0  0  0  0  0
    3.0000   -7.7942    0.0000 C   0  0  0  0  0  0  0  0  0  0  0  0
    0.7500   -1.2990    0.0000 C   0  0  0  0  0  0  0  0  0  0  0  0
    1.5000    0.0000    0.0000 C   0  0  0  0  0  0  0  0  0  0  0  0
    0.7500    1.2990    0.0000 C   0  0  0  0  0  0  0  0  0  0  0  0
   -0.7500    1.2990    0.0000 C   0  0  0  0  0  0  0  0  0  0  0  0
   -1.2980    2.6953    0.0000 N   0  0  0  0  0  0  0  0  0  0  0  0
   -2.7314    3.1375    0.0000 C   0  0  0  0  0  0  0  0  0  0  0  0
   -2.8435    4.6333    0.0000 C   0  0  0  0  0  0  0  0  0  0  0  0
   -4.1949    5.2841    0.0000 C   0  0  0  0  0  0  0  0  0  0  0  0
   -5.4343    4.4391    0.0000 C   0  0  0  0  0  0  0  0  0  0  0  0
   -5.3222    2.9433    0.0000 C   0  0  0  0  0  0  0  0  0  0  0  0
   -3.9707    2.2925    0.0000 C   0  0  0  0  0  0  0  0  0  0  0  0
   -4.0828    0.7967    0.0000 C   0  0  0  0  0  0  0  0  0  0  0  0
   -5.4791    0.2487    0.0000 O   0  0  0  0  0  0  0  0  0  0  0  0
   -2.9832   -0.2236    0.0000 N   0  0  0  0  0  0  0  0  0  0  0  0
   -1.5000    0.0000    0.0000 C   0  0  0  0  0  0  0  0  0  0  0  0
   -0.7500   -1.2990    0.0000 C   0  0  0  0  0  0  0  0  0  0  0  0
   -4.3070    6.7799    0.0000 C   0  0  0  0  0  0  0  0  0  0  0  0
   -3.0677    7.6249    0.0000 C   0  0  0  0  0  0  0  0  0  0  0  0
   -3.1798    9.1207    0.0000 C   0  0  0  0  0  0  0  0  0  0  0  0
   -4.5312    9.7715    0.0000 C   0  0  0  0  0  0  0  0  0  0  0  0
   -5.7706    8.9265    0.0000 C   0  0  0  0  0  0  0  0  0  0  0  0
   -5.6585    7.4307    0.0000 C   0  0  0  0  0  0  0  0  0  0  0  0
   -6.8978    6.5858    0.0000 N   0  0  0  0  0  0  0  0  0  0  0  0
   -8.2493    7.2366    0.0000 S   0  0  0  0  0  0  0  0  0  0  0  0
   -7.5985    8.5880    0.0000 O   0  0  0  0  0  0  0  0  0  0  0  0
   -8.9001    5.8851    0.0000 O   0  0  0  0  0  0  0  0  0  0  0  0
   -9.6007    7.8874    0.0000 C   0  0  0  0  0  0  0  0  0  0  0  0
  1  2  1  0
  2  3  1  0
  3  4  2  0
  4  5  1  0
  5  6  2  0
  6  7  1  0
  7  8  1  0
  8  9  1  0
  7 10  2  0
 10 11  1  0
 11 12  1  0
  5 13  1  0
 13 14  2  0
 14 15  1  0
 15 16  2  0
 16 17  1  0
 17 18  1  0
 18 19  2  0
 19 20  1  0
 20 21  2  0
 21 22  1  0
 22 23  2  0
 23 24  1  0
 24 25  2  0
 24 26  1  0
 26 27  1  0
 27 28  2  0
 20 29  1  0
 29 30  2  0
 30 31  1  0
 31 32  2  0
 32 33  1  0
 33 34  2  0
 34 35  1  0
 35 36  1  0
 36 37  2  0
 36 38  2  0
 36 39  1  0
 10  3  1  0
 28 13  1  0
 27 16  1  0
 23 18  1  0
 34 29  1  0
M  END
>  <Molecule>  (611) 
CHEMBL1984038

>  <Standard Type>  (611) 
Ki

>  <Standard Relation>  (611) 
>

>  <Standard Value>  (611) 
3981.07

>  <Standard Units>  (611) 
nM

>  <pChEMBL Value>  (611) 
nan

>  <Comment>  (611) 
inactive

>  <Compound Key>  (611) 
SID103904721

>  <Assay>  (611) 
CHEMBL1963742

>  <Assay Description>  (611) 
PUBCHEM_BIOASSAY: Navigating the Kinome. (Class of assay: other) Panel member name: JAK3

>  <BAO Format>  (611) 
assay format

>  <Target>  (611) 
CHEMBL2148

>  <Target Pref. Name>  (611) 
Tyrosine-protein kinase JAK3

>  <Target Organism>  (611) 
Homo sapiens

>  <Target Type>  (611) 
SINGLE PROTEIN

>  <Document>  (611) 
CHEMBL1201862

>  <Source>  (611) 
PubChem BioAssays

>  <Max Phase>  (611) 
0

>  <#Ro5 Violations>  (611) 
2

>  <Molecular Weight>  (611) 
545.62

>  <Ligand Efficiency BEI>  (611) 
nan

>  <Ligand Efficiency LE>  (611) 
nan

>  <Ligand Efficiency LLE>  (611) 
nan

>  <Ligand Efficiency SEI>  (611) 
nan

>  <ALogP>  (611) 
5.73

>  <Assay Organism>  (611) 
nan

>  <Assay Tissue ChEMBL ID>  (611) 
nan

>  <Assay Tissue Name>  (611) 
nan

>  <Assay Cell Type>  (611) 
nan

>  <Assay Subcellular Fraction>  (611) 
nan

>  <Organism Tax ID>  (611) 
9606

>  <BAO Format ID>  (611) 
BAO_0000019

>  <Published Type>  (611) 
nan

>  <Published Relation>  (611) 
nan

>  <Published Value>  (611) 
nan

>  <Published Units>  (611) 
nan

>  <Canonical Smiles>  (611) 
COc1cc(cc(OC)c1OC)c2ccc3Nc4cc(ccc4C(=O)Nc3c2)c5ccccc5NS(=O)(=O)C

>  <Data Validity Comment>  (611) 
nan

>  <Document Journal>  (611) 
nan

>  <Document Year>  (611) 
nan

>  <SRC ID>  (611) 
7

>  <UO Units>  (611) 
UO_0000065

>  <Potential Duplicate>  (611) 
False

>  <Class>  (611) 
0

$$$$

     RDKit          2D

 22 24  0  0  0  0  0  0  0  0999 V2000
    3.0000    0.0000    0.0000 F   0  0  0  0  0  0  0  0  0  0  0  0
    1.5000    0.0000    0.0000 C   0  0  0  0  0  0  0  0  0  0  0  0
    0.7500   -1.2990    0.0000 C   0  0  0  0  0  0  0  0  0  0  0  0
   -0.7500   -1.2990    0.0000 C   0  0  0  0  0  0  0  0  0  0  0  0
   -1.5000    0.0000    0.0000 C   0  0  0  0  0  0  0  0  0  0  0  0
   -0.7500    1.2990    0.0000 C   0  0  0  0  0  0  0  0  0  0  0  0
    0.7500    1.2990    0.0000 C   0  0  0  0  0  0  0  0  0  0  0  0
    1.5000    2.5981    0.0000 C   0  0  0  0  0  0  0  0  0  0  0  0
    3.0000    2.5981    0.0000 N   0  0  0  0  0  0  0  0  0  0  0  0
    3.7500    3.8971    0.0000 C   0  0  0  0  0  0  0  0  0  0  0  0
    5.1989    4.2853    0.0000 C   0  0  0  0  0  0  0  0  0  0  0  0
    6.4979    3.5353    0.0000 N   0  0  0  0  0  0  0  0  0  0  0  0
    6.4979    2.0353    0.0000 C   0  0  0  0  0  0  0  0  0  0  0  0
    5.1989    1.2853    0.0000 C   0  0  0  0  0  0  0  0  0  0  0  0
    5.1989   -0.2147    0.0000 C   0  0  0  0  0  0  0  0  0  0  0  0
    6.4979   -0.9647    0.0000 N   0  0  0  0  0  0  0  0  0  0  0  0
    7.7970   -0.2147    0.0000 C   0  0  0  0  0  0  0  0  0  0  0  0
    7.7970    1.2853    0.0000 C   0  0  0  0  0  0  0  0  0  0  0  0
    4.8107    5.7342    0.0000 C   0  0  0  0  0  0  0  0  0  0  0  0
    5.5607    7.0333    0.0000 O   0  0  0  0  0  0  0  0  0  0  0  0
    3.3618    5.3460    0.0000 C   0  0  0  0  0  0  0  0  0  0  0  0
    2.0627    6.0960    0.0000 O   0  0  0  0  0  0  0  0  0  0  0  0
  1  2  1  0
  2  3  2  0
  3  4  1  0
  4  5  2  0
  5  6  1  0
  6  7  2  0
  7  8  1  0
  8  9  1  0
  9 10  1  0
 10 11  2  0
 11 12  1  0
 12 13  1  0
 13 14  2  0
 14 15  1  0
 15 16  2  0
 16 17  1  0
 17 18  2  0
 11 19  1  0
 19 20  2  0
 19 21  1  0
 21 22  2  0
  7  2  1  0
 21 10  1  0
 18 13  1  0
M  END
>  <Molecule>  (612) 
CHEMBL1982361

>  <Standard Type>  (612) 
Ki

>  <Standard Relation>  (612) 
>

>  <Standard Value>  (612) 
1584.89

>  <Standard Units>  (612) 
nM

>  <pChEMBL Value>  (612) 
nan

>  <Comment>  (612) 
inactive

>  <Compound Key>  (612) 
SID103904729

>  <Assay>  (612) 
CHEMBL1963742

>  <Assay Description>  (612) 
PUBCHEM_BIOASSAY: Navigating the Kinome. (Class of assay: other) Panel member name: JAK3

>  <BAO Format>  (612) 
assay format

>  <Target>  (612) 
CHEMBL2148

>  <Target Pref. Name>  (612) 
Tyrosine-protein kinase JAK3

>  <Target Organism>  (612) 
Homo sapiens

>  <Target Type>  (612) 
SINGLE PROTEIN

>  <Document>  (612) 
CHEMBL1201862

>  <Source>  (612) 
PubChem BioAssays

>  <Max Phase>  (612) 
0

>  <#Ro5 Violations>  (612) 
0

>  <Molecular Weight>  (612) 
297.29

>  <Ligand Efficiency BEI>  (612) 
nan

>  <Ligand Efficiency LE>  (612) 
nan

>  <Ligand Efficiency LLE>  (612) 
nan

>  <Ligand Efficiency SEI>  (612) 
nan

>  <ALogP>  (612) 
2.17

>  <Assay Organism>  (612) 
nan

>  <Assay Tissue ChEMBL ID>  (612) 
nan

>  <Assay Tissue Name>  (612) 
nan

>  <Assay Cell Type>  (612) 
nan

>  <Assay Subcellular Fraction>  (612) 
nan

>  <Organism Tax ID>  (612) 
9606

>  <BAO Format ID>  (612) 
BAO_0000019

>  <Published Type>  (612) 
nan

>  <Published Relation>  (612) 
nan

>  <Published Value>  (612) 
nan

>  <Published Units>  (612) 
nan

>  <Canonical Smiles>  (612) 
Fc1ccccc1CNC2=C(Nc3ccncc3)C(=O)C2=O

>  <Data Validity Comment>  (612) 
nan

>  <Document Journal>  (612) 
nan

>  <Document Year>  (612) 
nan

>  <SRC ID>  (612) 
7

>  <UO Units>  (612) 
UO_0000065

>  <Potential Duplicate>  (612) 
False

>  <Class>  (612) 
0

$$$$

     RDKit          2D

 21 24  0  0  0  0  0  0  0  0999 V2000
   -2.6401   -3.1891    0.0000 C   0  0  0  0  0  0  0  0  0  0  0  0
   -1.2135   -2.7256    0.0000 N   0  0  0  0  0  0  0  0  0  0  0  0
   -0.0000   -3.6073    0.0000 C   0  0  0  0  0  0  0  0  0  0  0  0
    1.2135   -2.7256    0.0000 C   0  0  0  0  0  0  0  0  0  0  0  0
    2.6401   -3.1891    0.0000 C   0  0  0  0  0  0  0  0  0  0  0  0
    2.9520   -4.6564    0.0000 C   0  0  0  0  0  0  0  0  0  0  0  0
    1.9483   -5.7711    0.0000 C   0  0  0  0  0  0  0  0  0  0  0  0
    0.4565   -5.6143    0.0000 O   0  0  0  0  0  0  0  0  0  0  0  0
    2.6983   -7.0701    0.0000 N   0  0  0  0  0  0  0  0  0  0  0  0
    4.1655   -6.7583    0.0000 C   0  0  0  0  0  0  0  0  0  0  0  0
    5.3790   -7.6399    0.0000 C   0  0  0  0  0  0  0  0  0  0  0  0
    6.7493   -7.0298    0.0000 C   0  0  0  0  0  0  0  0  0  0  0  0
    6.9061   -5.5380    0.0000 C   0  0  0  0  0  0  0  0  0  0  0  0
    5.6926   -4.6564    0.0000 N   0  0  0  0  0  0  0  0  0  0  0  0
    4.3223   -5.2665    0.0000 C   0  0  0  0  0  0  0  0  0  0  0  0
    0.7500   -1.2990    0.0000 C   0  0  0  0  0  0  0  0  0  0  0  0
    1.5000    0.0000    0.0000 C   0  0  0  0  0  0  0  0  0  0  0  0
    0.7500    1.2990    0.0000 C   0  0  0  0  0  0  0  0  0  0  0  0
   -0.7500    1.2990    0.0000 C   0  0  0  0  0  0  0  0  0  0  0  0
   -1.5000    0.0000    0.0000 C   0  0  0  0  0  0  0  0  0  0  0  0
   -0.7500   -1.2990    0.0000 C   0  0  0  0  0  0  0  0  0  0  0  0
  1  2  1  0
  2  3  1  0
  3  4  2  0
  4  5  1  0
  5  6  2  3
  6  7  1  0
  7  8  2  0
  7  9  1  0
  9 10  1  0
 10 11  2  0
 11 12  1  0
 12 13  2  0
 13 14  1  0
 14 15  2  0
  4 16  1  0
 16 17  2  0
 17 18  1  0
 18 19  2  0
 19 20  1  0
 20 21  2  0
 21  2  1  0
 15  6  1  0
 15 10  1  0
 21 16  1  0
M  END
>  <Molecule>  (613) 
CHEMBL1516890

>  <Standard Type>  (613) 
Ki

>  <Standard Relation>  (613) 
>

>  <Standard Value>  (613) 
1584.89

>  <Standard Units>  (613) 
nM

>  <pChEMBL Value>  (613) 
nan

>  <Comment>  (613) 
inactive

>  <Compound Key>  (613) 
SID103905238

>  <Assay>  (613) 
CHEMBL1963742

>  <Assay Description>  (613) 
PUBCHEM_BIOASSAY: Navigating the Kinome. (Class of assay: other) Panel member name: JAK3

>  <BAO Format>  (613) 
assay format

>  <Target>  (613) 
CHEMBL2148

>  <Target Pref. Name>  (613) 
Tyrosine-protein kinase JAK3

>  <Target Organism>  (613) 
Homo sapiens

>  <Target Type>  (613) 
SINGLE PROTEIN

>  <Document>  (613) 
CHEMBL1201862

>  <Source>  (613) 
PubChem BioAssays

>  <Max Phase>  (613) 
0

>  <#Ro5 Violations>  (613) 
0

>  <Molecular Weight>  (613) 
275.31

>  <Ligand Efficiency BEI>  (613) 
nan

>  <Ligand Efficiency LE>  (613) 
nan

>  <Ligand Efficiency LLE>  (613) 
nan

>  <Ligand Efficiency SEI>  (613) 
nan

>  <ALogP>  (613) 
3.07

>  <Assay Organism>  (613) 
nan

>  <Assay Tissue ChEMBL ID>  (613) 
nan

>  <Assay Tissue Name>  (613) 
nan

>  <Assay Cell Type>  (613) 
nan

>  <Assay Subcellular Fraction>  (613) 
nan

>  <Organism Tax ID>  (613) 
9606

>  <BAO Format ID>  (613) 
BAO_0000019

>  <Published Type>  (613) 
nan

>  <Published Relation>  (613) 
nan

>  <Published Value>  (613) 
nan

>  <Published Units>  (613) 
nan

>  <Canonical Smiles>  (613) 
Cn1cc(C=C2C(=O)Nc3cccnc23)c4ccccc14

>  <Data Validity Comment>  (613) 
nan

>  <Document Journal>  (613) 
nan

>  <Document Year>  (613) 
nan

>  <SRC ID>  (613) 
7

>  <UO Units>  (613) 
UO_0000065

>  <Potential Duplicate>  (613) 
False

>  <Class>  (613) 
0

$$$$

     RDKit          2D

 31 34  0  0  0  0  0  0  0  0999 V2000
  -16.2822   -4.8900    0.0000 C   0  0  0  0  0  0  0  0  0  0  0  0
  -14.8556   -4.4264    0.0000 C   0  0  0  0  0  0  0  0  0  0  0  0
  -14.5438   -2.9592    0.0000 C   0  0  0  0  0  0  0  0  0  0  0  0
  -13.1172   -2.4957    0.0000 C   0  0  0  0  0  0  0  0  0  0  0  0
  -12.8053   -1.0285    0.0000 C   0  0  0  0  0  0  0  0  0  0  0  0
  -12.0025   -3.4994    0.0000 C   0  0  0  0  0  0  0  0  0  0  0  0
  -12.3143   -4.9666    0.0000 C   0  0  0  0  0  0  0  0  0  0  0  0
  -11.1996   -5.9703    0.0000 N   0  0  0  0  0  0  0  0  0  0  0  0
   -9.7730   -5.5068    0.0000 C   0  0  0  0  0  0  0  0  0  0  0  0
   -9.4612   -4.0396    0.0000 O   0  0  0  0  0  0  0  0  0  0  0  0
   -8.6583   -6.5105    0.0000 N   0  0  0  0  0  0  0  0  0  0  0  0
   -7.2317   -6.0469    0.0000 C   0  0  0  0  0  0  0  0  0  0  0  0
   -6.1170   -7.0506    0.0000 C   0  0  0  0  0  0  0  0  0  0  0  0
   -4.6904   -6.5871    0.0000 C   0  0  0  0  0  0  0  0  0  0  0  0
   -4.3786   -5.1199    0.0000 C   0  0  0  0  0  0  0  0  0  0  0  0
   -2.9520   -4.6564    0.0000 N   0  0  0  0  0  0  0  0  0  0  0  0
   -2.6401   -3.1891    0.0000 C   0  0  0  0  0  0  0  0  0  0  0  0
   -3.7548   -2.1855    0.0000 O   0  0  0  0  0  0  0  0  0  0  0  0
   -1.2135   -2.7256    0.0000 C   0  0  0  0  0  0  0  0  0  0  0  0
    0.0000   -3.6073    0.0000 C   0  0  0  0  0  0  0  0  0  0  0  0
    1.2135   -2.7256    0.0000 S   0  0  0  0  0  0  0  0  0  0  0  0
    0.7500   -1.2990    0.0000 C   0  0  0  0  0  0  0  0  0  0  0  0
    1.5000    0.0000    0.0000 N   0  0  0  0  0  0  0  0  0  0  0  0
    0.7500    1.2990    0.0000 C   0  0  0  0  0  0  0  0  0  0  0  0
   -0.7500    1.2990    0.0000 N   0  0  0  0  0  0  0  0  0  0  0  0
   -1.5000    0.0000    0.0000 C   0  0  0  0  0  0  0  0  0  0  0  0
   -3.0000    0.0000    0.0000 N   0  0  0  0  0  0  0  0  0  0  0  0
   -0.7500   -1.2990    0.0000 C   0  0  0  0  0  0  0  0  0  0  0  0
   -5.4933   -4.1162    0.0000 C   0  0  0  0  0  0  0  0  0  0  0  0
   -6.9199   -4.5797    0.0000 C   0  0  0  0  0  0  0  0  0  0  0  0
  -13.7409   -5.4301    0.0000 C   0  0  0  0  0  0  0  0  0  0  0  0
  1  2  1  0
  2  3  2  0
  3  4  1  0
  4  5  1  0
  4  6  2  0
  6  7  1  0
  7  8  1  0
  8  9  1  0
  9 10  2  0
  9 11  1  0
 11 12  1  0
 12 13  2  0
 13 14  1  0
 14 15  2  0
 15 16  1  0
 16 17  1  0
 17 18  2  0
 17 19  1  0
 19 20  2  0
 20 21  1  0
 21 22  1  0
 22 23  2  0
 23 24  1  0
 24 25  2  0
 25 26  1  0
 26 27  1  0
 26 28  2  0
 15 29  1  0
 29 30  2  0
  7 31  2  0
 31  2  1  0
 30 12  1  0
 28 19  1  0
 28 22  1  0
M  END
>  <Molecule>  (614) 
CHEMBL1970203

>  <Standard Type>  (614) 
Ki

>  <Standard Relation>  (614) 
>

>  <Standard Value>  (614) 
1584.89

>  <Standard Units>  (614) 
nM

>  <pChEMBL Value>  (614) 
nan

>  <Comment>  (614) 
inactive

>  <Compound Key>  (614) 
SID103904353

>  <Assay>  (614) 
CHEMBL1963742

>  <Assay Description>  (614) 
PUBCHEM_BIOASSAY: Navigating the Kinome. (Class of assay: other) Panel member name: JAK3

>  <BAO Format>  (614) 
assay format

>  <Target>  (614) 
CHEMBL2148

>  <Target Pref. Name>  (614) 
Tyrosine-protein kinase JAK3

>  <Target Organism>  (614) 
Homo sapiens

>  <Target Type>  (614) 
SINGLE PROTEIN

>  <Document>  (614) 
CHEMBL1201862

>  <Source>  (614) 
PubChem BioAssays

>  <Max Phase>  (614) 
0

>  <#Ro5 Violations>  (614) 
0

>  <Molecular Weight>  (614) 
432.51

>  <Ligand Efficiency BEI>  (614) 
nan

>  <Ligand Efficiency LE>  (614) 
nan

>  <Ligand Efficiency LLE>  (614) 
nan

>  <Ligand Efficiency SEI>  (614) 
nan

>  <ALogP>  (614) 
4.79

>  <Assay Organism>  (614) 
nan

>  <Assay Tissue ChEMBL ID>  (614) 
nan

>  <Assay Tissue Name>  (614) 
nan

>  <Assay Cell Type>  (614) 
nan

>  <Assay Subcellular Fraction>  (614) 
nan

>  <Organism Tax ID>  (614) 
9606

>  <BAO Format ID>  (614) 
BAO_0000019

>  <Published Type>  (614) 
nan

>  <Published Relation>  (614) 
nan

>  <Published Value>  (614) 
nan

>  <Published Units>  (614) 
nan

>  <Canonical Smiles>  (614) 
Cc1cc(C)cc(NC(=O)Nc2ccc(NC(=O)c3csc4ncnc(N)c34)cc2)c1

>  <Data Validity Comment>  (614) 
nan

>  <Document Journal>  (614) 
nan

>  <Document Year>  (614) 
nan

>  <SRC ID>  (614) 
7

>  <UO Units>  (614) 
UO_0000065

>  <Potential Duplicate>  (614) 
False

>  <Class>  (614) 
0

$$$$

     RDKit          2D

 54 55  0  0  0  0  0  0  0  0999 V2000
    3.7500   -1.2990    0.0000 C   0  0  0  0  0  0  0  0  0  0  0  0
    3.0000    0.0000    0.0000 C   0  0  0  0  0  0  0  0  0  0  0  0
    3.7500    1.2990    0.0000 N   0  0  0  0  0  0  0  0  0  0  0  0
    5.2500    1.2990    0.0000 N   0  0  0  0  0  0  0  0  0  0  0  0
    6.0000    2.5981    0.0000 C   0  0  0  0  0  0  0  0  0  0  0  0
    5.2500    3.8971    0.0000 N   0  0  0  0  0  0  0  0  0  0  0  0
    7.5000    2.5981    0.0000 N   0  0  0  0  0  0  0  0  0  0  0  0
    1.5000    0.0000    0.0000 C   0  0  0  0  0  0  0  0  0  0  0  0
    0.7500   -1.2990    0.0000 C   0  0  0  0  0  0  0  0  0  0  0  0
   -0.7500   -1.2990    0.0000 C   0  0  0  0  0  0  0  0  0  0  0  0
   -1.5000   -2.5981    0.0000 N   0  0  0  0  0  0  0  0  0  0  0  0
   -3.0000   -2.5981    0.0000 C   0  0  0  0  0  0  0  0  0  0  0  0
   -3.7500   -1.2990    0.0000 O   0  0  0  0  0  0  0  0  0  0  0  0
   -3.7500   -3.8971    0.0000 N   0  0  0  0  0  0  0  0  0  0  0  0
   -5.2500   -3.8971    0.0000 C   0  0  0  0  0  0  0  0  0  0  0  0
   -6.0000   -5.1962    0.0000 C   0  0  0  0  0  0  0  0  0  0  0  0
   -7.5000   -5.1962    0.0000 C   0  0  0  0  0  0  0  0  0  0  0  0
   -8.2500   -6.4952    0.0000 C   0  0  0  0  0  0  0  0  0  0  0  0
   -9.7500   -6.4952    0.0000 C   0  0  0  0  0  0  0  0  0  0  0  0
  -10.5000   -7.7942    0.0000 C   0  0  0  0  0  0  0  0  0  0  0  0
  -12.0000   -7.7942    0.0000 N   0  0  0  0  0  0  0  0  0  0  0  0
  -12.7500   -9.0933    0.0000 C   0  0  0  0  0  0  0  0  0  0  0  0
  -12.0000  -10.3923    0.0000 O   0  0  0  0  0  0  0  0  0  0  0  0
  -14.2500   -9.0933    0.0000 N   0  0  0  0  0  0  0  0  0  0  0  0
  -15.0000  -10.3923    0.0000 C   0  0  0  0  0  0  0  0  0  0  0  0
  -16.5000  -10.3923    0.0000 C   0  0  0  0  0  0  0  0  0  0  0  0
  -17.2500  -11.6913    0.0000 C   0  0  0  0  0  0  0  0  0  0  0  0
  -16.5000  -12.9904    0.0000 C   0  0  0  0  0  0  0  0  0  0  0  0
  -15.0000  -12.9904    0.0000 C   0  0  0  0  0  0  0  0  0  0  0  0
  -14.2500  -11.6913    0.0000 C   0  0  0  0  0  0  0  0  0  0  0  0
  -14.2500  -14.2894    0.0000 C   0  0  0  0  0  0  0  0  0  0  0  0
  -12.7500  -14.2894    0.0000 N   0  0  0  0  0  0  0  0  0  0  0  0
  -12.0000  -15.5885    0.0000 N   0  0  0  0  0  0  0  0  0  0  0  0
  -10.5000  -15.5885    0.0000 C   0  0  0  0  0  0  0  0  0  0  0  0
   -9.7500  -14.2894    0.0000 N   0  0  0  0  0  0  0  0  0  0  0  0
   -9.7500  -16.8875    0.0000 N   0  0  0  0  0  0  0  0  0  0  0  0
  -15.0000  -15.5885    0.0000 C   0  0  0  0  0  0  0  0  0  0  0  0
  -18.7500  -11.6913    0.0000 C   0  0  0  0  0  0  0  0  0  0  0  0
  -19.5000  -12.9904    0.0000 N   0  0  0  0  0  0  0  0  0  0  0  0
  -21.0000  -12.9904    0.0000 N   0  0  0  0  0  0  0  0  0  0  0  0
  -21.7500  -14.2894    0.0000 C   0  0  0  0  0  0  0  0  0  0  0  0
  -21.0000  -15.5885    0.0000 N   0  0  0  0  0  0  0  0  0  0  0  0
  -23.2500  -14.2894    0.0000 N   0  0  0  0  0  0  0  0  0  0  0  0
  -19.5000  -10.3923    0.0000 C   0  0  0  0  0  0  0  0  0  0  0  0
   -1.5000    0.0000    0.0000 C   0  0  0  0  0  0  0  0  0  0  0  0
   -0.7500    1.2990    0.0000 C   0  0  0  0  0  0  0  0  0  0  0  0
    0.7500    1.2990    0.0000 C   0  0  0  0  0  0  0  0  0  0  0  0
   -1.5000    2.5981    0.0000 C   0  0  0  0  0  0  0  0  0  0  0  0
   -3.0000    2.5981    0.0000 N   0  0  0  0  0  0  0  0  0  0  0  0
   -3.7500    3.8971    0.0000 N   0  0  0  0  0  0  0  0  0  0  0  0
   -5.2500    3.8971    0.0000 C   0  0  0  0  0  0  0  0  0  0  0  0
   -6.0000    2.5981    0.0000 N   0  0  0  0  0  0  0  0  0  0  0  0
   -6.0000    5.1962    0.0000 N   0  0  0  0  0  0  0  0  0  0  0  0
   -0.7500    3.8971    0.0000 C   0  0  0  0  0  0  0  0  0  0  0  0
  1  2  1  0
  2  3  2  3
  3  4  1  0
  4  5  1  0
  5  6  2  0
  5  7  1  0
  2  8  1  0
  8  9  2  0
  9 10  1  0
 10 11  1  0
 11 12  1  0
 12 13  2  0
 12 14  1  0
 14 15  1  0
 15 16  1  0
 16 17  1  0
 17 18  1  0
 18 19  1  0
 19 20  1  0
 20 21  1  0
 21 22  1  0
 22 23  2  0
 22 24  1  0
 24 25  1  0
 25 26  2  0
 26 27  1  0
 27 28  2  0
 28 29  1  0
 29 30  2  0
 29 31  1  0
 31 32  2  3
 32 33  1  0
 33 34  1  0
 34 35  2  0
 34 36  1  0
 31 37  1  0
 27 38  1  0
 38 39  2  3
 39 40  1  0
 40 41  1  0
 41 42  2  0
 41 43  1  0
 38 44  1  0
 10 45  2  0
 45 46  1  0
 46 47  2  0
 46 48  1  0
 48 49  2  3
 49 50  1  0
 50 51  1  0
 51 52  2  0
 51 53  1  0
 48 54  1  0
 47  8  1  0
 30 25  1  0
M  END
>  <Molecule>  (615) 
CHEMBL1991728

>  <Standard Type>  (615) 
Ki

>  <Standard Relation>  (615) 
=

>  <Standard Value>  (615) 
1000.0

>  <Standard Units>  (615) 
nM

>  <pChEMBL Value>  (615) 
6.0

>  <Comment>  (615) 
active

>  <Compound Key>  (615) 
SID103905366

>  <Assay>  (615) 
CHEMBL1963742

>  <Assay Description>  (615) 
PUBCHEM_BIOASSAY: Navigating the Kinome. (Class of assay: other) Panel member name: JAK3

>  <BAO Format>  (615) 
assay format

>  <Target>  (615) 
CHEMBL2148

>  <Target Pref. Name>  (615) 
Tyrosine-protein kinase JAK3

>  <Target Organism>  (615) 
Homo sapiens

>  <Target Type>  (615) 
SINGLE PROTEIN

>  <Document>  (615) 
CHEMBL1201862

>  <Source>  (615) 
PubChem BioAssays

>  <Max Phase>  (615) 
0

>  <#Ro5 Violations>  (615) 
2

>  <Molecular Weight>  (615) 
746.89

>  <Ligand Efficiency BEI>  (615) 
nan

>  <Ligand Efficiency LE>  (615) 
nan

>  <Ligand Efficiency LLE>  (615) 
nan

>  <Ligand Efficiency SEI>  (615) 
nan

>  <ALogP>  (615) 
1.02

>  <Assay Organism>  (615) 
nan

>  <Assay Tissue ChEMBL ID>  (615) 
nan

>  <Assay Tissue Name>  (615) 
nan

>  <Assay Cell Type>  (615) 
nan

>  <Assay Subcellular Fraction>  (615) 
nan

>  <Organism Tax ID>  (615) 
9606

>  <BAO Format ID>  (615) 
BAO_0000019

>  <Published Type>  (615) 
nan

>  <Published Relation>  (615) 
nan

>  <Published Value>  (615) 
nan

>  <Published Units>  (615) 
nan

>  <Canonical Smiles>  (615) 
CC(=NNC(=N)N)c1cc(NC(=O)NCCCCCCNC(=O)Nc2cc(cc(c2)C(=NNC(=N)N)C)C(=NNC(=N)N)C)cc(c1)C(=NNC(=N)N)C

>  <Data Validity Comment>  (615) 
nan

>  <Document Journal>  (615) 
nan

>  <Document Year>  (615) 
nan

>  <SRC ID>  (615) 
7

>  <UO Units>  (615) 
UO_0000065

>  <Potential Duplicate>  (615) 
False

>  <Class>  (615) 
1

$$$$

     RDKit          2D

 37 40  0  0  0  0  0  0  0  0999 V2000
    4.8807   -8.7495    0.0000 C   0  0  0  0  0  0  0  0  0  0  0  0
    3.4134   -8.4377    0.0000 O   0  0  0  0  0  0  0  0  0  0  0  0
    2.9499   -7.0111    0.0000 C   0  0  0  0  0  0  0  0  0  0  0  0
    1.4827   -6.6992    0.0000 C   0  0  0  0  0  0  0  0  0  0  0  0
    1.0192   -5.2726    0.0000 N   0  0  0  0  0  0  0  0  0  0  0  0
    2.0229   -4.1579    0.0000 C   0  0  0  0  0  0  0  0  0  0  0  0
   -0.4481   -4.9608    0.0000 C   0  0  0  0  0  0  0  0  0  0  0  0
   -0.9116   -3.5342    0.0000 O   0  0  0  0  0  0  0  0  0  0  0  0
   -1.4518   -6.0755    0.0000 C   0  0  0  0  0  0  0  0  0  0  0  0
   -0.9882   -7.5021    0.0000 C   0  0  0  0  0  0  0  0  0  0  0  0
   -1.9919   -8.6168    0.0000 C   0  0  0  0  0  0  0  0  0  0  0  0
   -3.4591   -8.3049    0.0000 C   0  0  0  0  0  0  0  0  0  0  0  0
   -3.9227   -6.8783    0.0000 C   0  0  0  0  0  0  0  0  0  0  0  0
   -2.9190   -5.7636    0.0000 C   0  0  0  0  0  0  0  0  0  0  0  0
   -5.3899   -6.5665    0.0000 N   0  0  0  0  0  0  0  0  0  0  0  0
   -6.5046   -7.5702    0.0000 N   0  0  0  0  0  0  0  0  0  0  0  0
   -7.8037   -6.8202    0.0000 C   0  0  0  0  0  0  0  0  0  0  0  0
   -7.4918   -5.3529    0.0000 C   0  0  0  0  0  0  0  0  0  0  0  0
   -6.0000   -5.1962    0.0000 C   0  0  0  0  0  0  0  0  0  0  0  0
   -5.2500   -3.8971    0.0000 N   0  0  0  0  0  0  0  0  0  0  0  0
   -6.0000   -2.5981    0.0000 C   0  0  0  0  0  0  0  0  0  0  0  0
   -7.5000   -2.5981    0.0000 O   0  0  0  0  0  0  0  0  0  0  0  0
   -5.2500   -1.2990    0.0000 N   0  0  0  0  0  0  0  0  0  0  0  0
   -6.0000    0.0000    0.0000 C   0  0  0  0  0  0  0  0  0  0  0  0
   -7.5000    0.0000    0.0000 C   0  0  0  0  0  0  0  0  0  0  0  0
   -8.2500    1.2990    0.0000 C   0  0  0  0  0  0  0  0  0  0  0  0
   -7.5000    2.5981    0.0000 C   0  0  0  0  0  0  0  0  0  0  0  0
   -6.0000    2.5981    0.0000 C   0  0  0  0  0  0  0  0  0  0  0  0
   -5.2500    3.8971    0.0000 C   0  0  0  0  0  0  0  0  0  0  0  0
   -3.7500    3.8971    0.0000 C   0  0  0  0  0  0  0  0  0  0  0  0
   -3.0000    2.5981    0.0000 C   0  0  0  0  0  0  0  0  0  0  0  0
   -3.7500    1.2990    0.0000 C   0  0  0  0  0  0  0  0  0  0  0  0
   -5.2500    1.2990    0.0000 C   0  0  0  0  0  0  0  0  0  0  0  0
   -9.1740   -7.4303    0.0000 C   0  0  0  0  0  0  0  0  0  0  0  0
   -9.7841   -6.0600    0.0000 C   0  0  0  0  0  0  0  0  0  0  0  0
   -8.5639   -8.8006    0.0000 C   0  0  0  0  0  0  0  0  0  0  0  0
  -10.5443   -8.0404    0.0000 C   0  0  0  0  0  0  0  0  0  0  0  0
  1  2  1  0
  2  3  1  0
  3  4  1  0
  4  5  1  0
  5  6  1  0
  5  7  1  0
  7  8  2  0
  7  9  1  0
  9 10  2  0
 10 11  1  0
 11 12  2  0
 12 13  1  0
 13 14  2  0
 13 15  1  0
 15 16  1  0
 16 17  2  0
 17 18  1  0
 18 19  2  0
 19 20  1  0
 20 21  1  0
 21 22  2  0
 21 23  1  0
 23 24  1  0
 24 25  2  0
 25 26  1  0
 26 27  2  0
 27 28  1  0
 28 29  2  0
 29 30  1  0
 30 31  2  0
 31 32  1  0
 32 33  2  0
 17 34  1  0
 34 35  1  0
 34 36  1  0
 34 37  1  0
 14  9  1  0
 19 15  1  0
 33 24  1  0
 33 28  1  0
M  END
>  <Molecule>  (616) 
CHEMBL2002660

>  <Standard Type>  (616) 
Ki

>  <Standard Relation>  (616) 
>

>  <Standard Value>  (616) 
5011.87

>  <Standard Units>  (616) 
nM

>  <pChEMBL Value>  (616) 
nan

>  <Comment>  (616) 
inactive

>  <Compound Key>  (616) 
SID103904831

>  <Assay>  (616) 
CHEMBL1963742

>  <Assay Description>  (616) 
PUBCHEM_BIOASSAY: Navigating the Kinome. (Class of assay: other) Panel member name: JAK3

>  <BAO Format>  (616) 
assay format

>  <Target>  (616) 
CHEMBL2148

>  <Target Pref. Name>  (616) 
Tyrosine-protein kinase JAK3

>  <Target Organism>  (616) 
Homo sapiens

>  <Target Type>  (616) 
SINGLE PROTEIN

>  <Document>  (616) 
CHEMBL1201862

>  <Source>  (616) 
PubChem BioAssays

>  <Max Phase>  (616) 
0

>  <#Ro5 Violations>  (616) 
1

>  <Molecular Weight>  (616) 
499.62

>  <Ligand Efficiency BEI>  (616) 
nan

>  <Ligand Efficiency LE>  (616) 
nan

>  <Ligand Efficiency LLE>  (616) 
nan

>  <Ligand Efficiency SEI>  (616) 
nan

>  <ALogP>  (616) 
5.69

>  <Assay Organism>  (616) 
nan

>  <Assay Tissue ChEMBL ID>  (616) 
nan

>  <Assay Tissue Name>  (616) 
nan

>  <Assay Cell Type>  (616) 
nan

>  <Assay Subcellular Fraction>  (616) 
nan

>  <Organism Tax ID>  (616) 
9606

>  <BAO Format ID>  (616) 
BAO_0000019

>  <Published Type>  (616) 
nan

>  <Published Relation>  (616) 
nan

>  <Published Value>  (616) 
nan

>  <Published Units>  (616) 
nan

>  <Canonical Smiles>  (616) 
COCCN(C)C(=O)c1cccc(c1)n2nc(cc2NC(=O)Nc3cccc4ccccc34)C(C)(C)C

>  <Data Validity Comment>  (616) 
nan

>  <Document Journal>  (616) 
nan

>  <Document Year>  (616) 
nan

>  <SRC ID>  (616) 
7

>  <UO Units>  (616) 
UO_0000065

>  <Potential Duplicate>  (616) 
False

>  <Class>  (616) 
0

$$$$

     RDKit          2D

 11 12  0  0  0  0  0  0  0  0999 V2000
   -2.6401   -3.1891    0.0000 N   0  0  0  0  0  0  0  0  0  0  0  0
   -1.2135   -2.7256    0.0000 C   0  0  0  0  0  0  0  0  0  0  0  0
   -0.0000   -3.6073    0.0000 N   0  0  0  0  0  0  0  0  0  0  0  0
    1.2135   -2.7256    0.0000 N   0  0  0  0  0  0  0  0  0  0  0  0
    0.7500   -1.2990    0.0000 C   0  0  0  0  0  0  0  0  0  0  0  0
    1.5000    0.0000    0.0000 N   0  0  0  0  0  0  0  0  0  0  0  0
    0.7500    1.2990    0.0000 C   0  0  0  0  0  0  0  0  0  0  0  0
   -0.7500    1.2990    0.0000 C   0  0  0  0  0  0  0  0  0  0  0  0
   -1.5000    2.5981    0.0000 Br  0  0  0  0  0  0  0  0  0  0  0  0
   -1.5000    0.0000    0.0000 C   0  0  0  0  0  0  0  0  0  0  0  0
   -0.7500   -1.2990    0.0000 C   0  0  0  0  0  0  0  0  0  0  0  0
  1  2  1  0
  2  3  2  0
  3  4  1  0
  4  5  1  0
  5  6  2  0
  6  7  1  0
  7  8  2  0
  8  9  1  0
  8 10  1  0
 10 11  2  0
 11  2  1  0
 11  5  1  0
M  END
>  <Molecule>  (617) 
CHEMBL2002105

>  <Standard Type>  (617) 
Ki

>  <Standard Relation>  (617) 
=

>  <Standard Value>  (617) 
31622.78

>  <Standard Units>  (617) 
nM

>  <pChEMBL Value>  (617) 
4.5

>  <Comment>  (617) 
active

>  <Compound Key>  (617) 
SID103905528

>  <Assay>  (617) 
CHEMBL1963742

>  <Assay Description>  (617) 
PUBCHEM_BIOASSAY: Navigating the Kinome. (Class of assay: other) Panel member name: JAK3

>  <BAO Format>  (617) 
assay format

>  <Target>  (617) 
CHEMBL2148

>  <Target Pref. Name>  (617) 
Tyrosine-protein kinase JAK3

>  <Target Organism>  (617) 
Homo sapiens

>  <Target Type>  (617) 
SINGLE PROTEIN

>  <Document>  (617) 
CHEMBL1201862

>  <Source>  (617) 
PubChem BioAssays

>  <Max Phase>  (617) 
0

>  <#Ro5 Violations>  (617) 
0

>  <Molecular Weight>  (617) 
213.04

>  <Ligand Efficiency BEI>  (617) 
nan

>  <Ligand Efficiency LE>  (617) 
nan

>  <Ligand Efficiency LLE>  (617) 
nan

>  <Ligand Efficiency SEI>  (617) 
nan

>  <ALogP>  (617) 
1.3

>  <Assay Organism>  (617) 
nan

>  <Assay Tissue ChEMBL ID>  (617) 
nan

>  <Assay Tissue Name>  (617) 
nan

>  <Assay Cell Type>  (617) 
nan

>  <Assay Subcellular Fraction>  (617) 
nan

>  <Organism Tax ID>  (617) 
9606

>  <BAO Format ID>  (617) 
BAO_0000019

>  <Published Type>  (617) 
nan

>  <Published Relation>  (617) 
nan

>  <Published Value>  (617) 
nan

>  <Published Units>  (617) 
nan

>  <Canonical Smiles>  (617) 
Nc1n[nH]c2ncc(Br)cc12

>  <Data Validity Comment>  (617) 
nan

>  <Document Journal>  (617) 
nan

>  <Document Year>  (617) 
nan

>  <SRC ID>  (617) 
7

>  <UO Units>  (617) 
UO_0000065

>  <Potential Duplicate>  (617) 
False

>  <Class>  (617) 
1

$$$$

     RDKit          2D

 19 21  0  0  0  0  0  0  0  0999 V2000
    6.2011   -6.9341    0.0000 C   0  0  0  0  0  0  0  0  0  0  0  0
    4.8308   -6.3240    0.0000 C   0  0  0  0  0  0  0  0  0  0  0  0
    3.6172   -7.2057    0.0000 C   0  0  0  0  0  0  0  0  0  0  0  0
    4.6740   -4.8322    0.0000 C   0  0  0  0  0  0  0  0  0  0  0  0
    3.3037   -4.2221    0.0000 C   0  0  0  0  0  0  0  0  0  0  0  0
    2.9918   -2.7549    0.0000 C   0  0  0  0  0  0  0  0  0  0  0  0
    1.5000   -2.5981    0.0000 C   0  0  0  0  0  0  0  0  0  0  0  0
    0.8899   -3.9684    0.0000 O   0  0  0  0  0  0  0  0  0  0  0  0
    2.0046   -4.9721    0.0000 N   0  0  0  0  0  0  0  0  0  0  0  0
    0.7500   -1.2990    0.0000 C   0  0  0  0  0  0  0  0  0  0  0  0
    1.5000    0.0000    0.0000 C   0  0  0  0  0  0  0  0  0  0  0  0
    0.7500    1.2990    0.0000 C   0  0  0  0  0  0  0  0  0  0  0  0
   -0.7500    1.2990    0.0000 C   0  0  0  0  0  0  0  0  0  0  0  0
   -1.7537    2.4138    0.0000 N   0  0  0  0  0  0  0  0  0  0  0  0
   -3.1240    1.8037    0.0000 N   0  0  0  0  0  0  0  0  0  0  0  0
   -2.9672    0.3119    0.0000 C   0  0  0  0  0  0  0  0  0  0  0  0
   -4.0819   -0.6918    0.0000 N   0  0  0  0  0  0  0  0  0  0  0  0
   -1.5000    0.0000    0.0000 C   0  0  0  0  0  0  0  0  0  0  0  0
   -0.7500   -1.2990    0.0000 C   0  0  0  0  0  0  0  0  0  0  0  0
  1  2  1  0
  2  3  1  0
  2  4  1  0
  4  5  1  0
  5  6  1  0
  6  7  2  0
  7  8  1  0
  8  9  1  0
  7 10  1  0
 10 11  2  0
 11 12  1  0
 12 13  2  0
 13 14  1  0
 14 15  1  0
 15 16  2  0
 16 17  1  0
 16 18  1  0
 18 19  2  0
  9  5  2  0
 19 10  1  0
 18 13  1  0
M  END
>  <Molecule>  (618) 
CHEMBL1966343

>  <Standard Type>  (618) 
Ki

>  <Standard Relation>  (618) 
=

>  <Standard Value>  (618) 
316.23

>  <Standard Units>  (618) 
nM

>  <pChEMBL Value>  (618) 
6.5

>  <Comment>  (618) 
active

>  <Compound Key>  (618) 
SID103904482

>  <Assay>  (618) 
CHEMBL1963742

>  <Assay Description>  (618) 
PUBCHEM_BIOASSAY: Navigating the Kinome. (Class of assay: other) Panel member name: JAK3

>  <BAO Format>  (618) 
assay format

>  <Target>  (618) 
CHEMBL2148

>  <Target Pref. Name>  (618) 
Tyrosine-protein kinase JAK3

>  <Target Organism>  (618) 
Homo sapiens

>  <Target Type>  (618) 
SINGLE PROTEIN

>  <Document>  (618) 
CHEMBL1201862

>  <Source>  (618) 
PubChem BioAssays

>  <Max Phase>  (618) 
0

>  <#Ro5 Violations>  (618) 
0

>  <Molecular Weight>  (618) 
256.31

>  <Ligand Efficiency BEI>  (618) 
nan

>  <Ligand Efficiency LE>  (618) 
nan

>  <Ligand Efficiency LLE>  (618) 
nan

>  <Ligand Efficiency SEI>  (618) 
nan

>  <ALogP>  (618) 
3.0

>  <Assay Organism>  (618) 
nan

>  <Assay Tissue ChEMBL ID>  (618) 
nan

>  <Assay Tissue Name>  (618) 
nan

>  <Assay Cell Type>  (618) 
nan

>  <Assay Subcellular Fraction>  (618) 
nan

>  <Organism Tax ID>  (618) 
9606

>  <BAO Format ID>  (618) 
BAO_0000019

>  <Published Type>  (618) 
nan

>  <Published Relation>  (618) 
nan

>  <Published Value>  (618) 
nan

>  <Published Units>  (618) 
nan

>  <Canonical Smiles>  (618) 
CC(C)Cc1cc(on1)c2ccc3[nH]nc(N)c3c2

>  <Data Validity Comment>  (618) 
nan

>  <Document Journal>  (618) 
nan

>  <Document Year>  (618) 
nan

>  <SRC ID>  (618) 
7

>  <UO Units>  (618) 
UO_0000065

>  <Potential Duplicate>  (618) 
False

>  <Class>  (618) 
1

$$$$

     RDKit          2D

 21 23  0  0  0  0  0  0  0  0999 V2000
   -3.7500   -3.8971    0.0000 C   0  0  0  0  0  0  0  0  0  0  0  0
   -3.0000   -2.5981    0.0000 C   0  0  0  0  0  0  0  0  0  0  0  0
   -1.5000   -2.5981    0.0000 C   0  0  0  0  0  0  0  0  0  0  0  0
   -0.7500   -3.8971    0.0000 N   0  0  0  0  0  0  0  0  0  0  0  0
    0.7500   -3.8971    0.0000 C   0  0  0  0  0  0  0  0  0  0  0  0
    1.7537   -5.0118    0.0000 C   0  0  0  0  0  0  0  0  0  0  0  0
    1.4418   -6.4791    0.0000 O   0  0  0  0  0  0  0  0  0  0  0  0
    3.1240   -4.4017    0.0000 N   0  0  0  0  0  0  0  0  0  0  0  0
    2.9672   -2.9099    0.0000 C   0  0  0  0  0  0  0  0  0  0  0  0
    4.0819   -1.9062    0.0000 O   0  0  0  0  0  0  0  0  0  0  0  0
    1.5000   -2.5981    0.0000 C   0  0  0  0  0  0  0  0  0  0  0  0
    0.7500   -1.2990    0.0000 C   0  0  0  0  0  0  0  0  0  0  0  0
    1.5000    0.0000    0.0000 C   0  0  0  0  0  0  0  0  0  0  0  0
    0.7500    1.2990    0.0000 C   0  0  0  0  0  0  0  0  0  0  0  0
    1.5000    2.5981    0.0000 O   0  0  0  0  0  0  0  0  0  0  0  0
    3.0000    2.5981    0.0000 C   0  0  0  0  0  0  0  0  0  0  0  0
   -0.7500    1.2990    0.0000 C   0  0  0  0  0  0  0  0  0  0  0  0
   -1.5000    2.5981    0.0000 O   0  0  0  0  0  0  0  0  0  0  0  0
   -3.0000    2.5981    0.0000 C   0  0  0  0  0  0  0  0  0  0  0  0
   -1.5000    0.0000    0.0000 C   0  0  0  0  0  0  0  0  0  0  0  0
   -0.7500   -1.2990    0.0000 C   0  0  0  0  0  0  0  0  0  0  0  0
  1  2  1  0
  2  3  1  0
  3  4  2  0
  4  5  1  0
  5  6  1  0
  6  7  2  0
  6  8  1  0
  8  9  1  0
  9 10  2  0
  9 11  1  0
 11 12  1  0
 12 13  2  0
 13 14  1  0
 14 15  1  0
 15 16  1  0
 14 17  2  0
 17 18  1  0
 18 19  1  0
 17 20  1  0
 20 21  2  0
 21  3  1  0
 11  5  2  0
 21 12  1  0
M  END
>  <Molecule>  (619) 
CHEMBL2003524

>  <Standard Type>  (619) 
Ki

>  <Standard Relation>  (619) 
>

>  <Standard Value>  (619) 
1584.89

>  <Standard Units>  (619) 
nM

>  <pChEMBL Value>  (619) 
nan

>  <Comment>  (619) 
inactive

>  <Compound Key>  (619) 
SID103905551

>  <Assay>  (619) 
CHEMBL1963742

>  <Assay Description>  (619) 
PUBCHEM_BIOASSAY: Navigating the Kinome. (Class of assay: other) Panel member name: JAK3

>  <BAO Format>  (619) 
assay format

>  <Target>  (619) 
CHEMBL2148

>  <Target Pref. Name>  (619) 
Tyrosine-protein kinase JAK3

>  <Target Organism>  (619) 
Homo sapiens

>  <Target Type>  (619) 
SINGLE PROTEIN

>  <Document>  (619) 
CHEMBL1201862

>  <Source>  (619) 
PubChem BioAssays

>  <Max Phase>  (619) 
0

>  <#Ro5 Violations>  (619) 
0

>  <Molecular Weight>  (619) 
286.29

>  <Ligand Efficiency BEI>  (619) 
nan

>  <Ligand Efficiency LE>  (619) 
nan

>  <Ligand Efficiency LLE>  (619) 
nan

>  <Ligand Efficiency SEI>  (619) 
nan

>  <ALogP>  (619) 
1.7

>  <Assay Organism>  (619) 
nan

>  <Assay Tissue ChEMBL ID>  (619) 
nan

>  <Assay Tissue Name>  (619) 
nan

>  <Assay Cell Type>  (619) 
nan

>  <Assay Subcellular Fraction>  (619) 
nan

>  <Organism Tax ID>  (619) 
9606

>  <BAO Format ID>  (619) 
BAO_0000019

>  <Published Type>  (619) 
nan

>  <Published Relation>  (619) 
nan

>  <Published Value>  (619) 
nan

>  <Published Units>  (619) 
nan

>  <Canonical Smiles>  (619) 
CCc1nc2C(=O)NC(=O)c2c3cc(OC)c(OC)cc13

>  <Data Validity Comment>  (619) 
nan

>  <Document Journal>  (619) 
nan

>  <Document Year>  (619) 
nan

>  <SRC ID>  (619) 
7

>  <UO Units>  (619) 
UO_0000065

>  <Potential Duplicate>  (619) 
False

>  <Class>  (619) 
0

$$$$

     RDKit          2D

 29 32  0  0  0  0  0  0  0  0999 V2000
   -1.8373   -5.6601    0.0000 N   0  0  0  0  0  0  0  0  0  0  0  0
   -2.9520   -4.6564    0.0000 C   0  0  0  0  0  0  0  0  0  0  0  0
   -2.6401   -3.1891    0.0000 C   0  0  0  0  0  0  0  0  0  0  0  0
   -1.2135   -2.7256    0.0000 C   0  0  0  0  0  0  0  0  0  0  0  0
    0.0000   -3.6073    0.0000 C   0  0  0  0  0  0  0  0  0  0  0  0
    1.2135   -2.7256    0.0000 N   0  0  0  0  0  0  0  0  0  0  0  0
    0.7500   -1.2990    0.0000 C   0  0  0  0  0  0  0  0  0  0  0  0
    1.5000    0.0000    0.0000 C   0  0  0  0  0  0  0  0  0  0  0  0
    0.7500    1.2990    0.0000 C   0  0  0  0  0  0  0  0  0  0  0  0
   -0.7500    1.2990    0.0000 C   0  0  0  0  0  0  0  0  0  0  0  0
   -1.5000    0.0000    0.0000 C   0  0  0  0  0  0  0  0  0  0  0  0
   -0.7500   -1.2990    0.0000 C   0  0  0  0  0  0  0  0  0  0  0  0
   -4.3786   -5.1199    0.0000 C   0  0  0  0  0  0  0  0  0  0  0  0
   -5.4933   -4.1162    0.0000 O   0  0  0  0  0  0  0  0  0  0  0  0
   -4.6904   -6.5871    0.0000 N   0  0  0  0  0  0  0  0  0  0  0  0
   -6.1170   -7.0506    0.0000 C   0  0  0  0  0  0  0  0  0  0  0  0
   -7.2317   -6.0469    0.0000 C   0  0  0  0  0  0  0  0  0  0  0  0
   -8.6583   -6.5105    0.0000 N   0  0  0  0  0  0  0  0  0  0  0  0
   -8.9702   -7.9777    0.0000 C   0  0  0  0  0  0  0  0  0  0  0  0
   -7.8555   -8.9814    0.0000 C   0  0  0  0  0  0  0  0  0  0  0  0
   -8.1673  -10.4486    0.0000 C   0  0  0  0  0  0  0  0  0  0  0  0
   -9.5939  -10.9121    0.0000 C   0  0  0  0  0  0  0  0  0  0  0  0
   -9.9058  -12.3794    0.0000 C   0  0  0  0  0  0  0  0  0  0  0  0
  -11.3324  -12.8429    0.0000 C   0  0  0  0  0  0  0  0  0  0  0  0
  -11.6442  -14.3101    0.0000 C   0  0  0  0  0  0  0  0  0  0  0  0
  -10.5295  -15.3138    0.0000 N   0  0  0  0  0  0  0  0  0  0  0  0
   -9.1029  -14.8503    0.0000 C   0  0  0  0  0  0  0  0  0  0  0  0
   -8.7911  -13.3831    0.0000 C   0  0  0  0  0  0  0  0  0  0  0  0
   -6.4289   -8.5179    0.0000 C   0  0  0  0  0  0  0  0  0  0  0  0
  1  2  1  0
  2  3  1  0
  3  4  1  0
  4  5  2  0
  5  6  1  0
  6  7  1  0
  7  8  2  0
  8  9  1  0
  9 10  2  0
 10 11  1  0
 11 12  2  0
  2 13  1  0
 13 14  2  0
 13 15  1  0
 15 16  1  0
 16 17  2  0
 17 18  1  0
 18 19  2  0
 19 20  1  0
 20 21  1  0
 21 22  2  3
 22 23  1  0
 23 24  2  0
 24 25  1  0
 25 26  2  0
 26 27  1  0
 27 28  2  0
 20 29  2  0
 12  4  1  0
 12  7  1  0
 29 16  1  0
 28 23  1  0
M  END
>  <Molecule>  (620) 
CHEMBL1983945

>  <Standard Type>  (620) 
Ki

>  <Standard Relation>  (620) 
>

>  <Standard Value>  (620) 
3162.28

>  <Standard Units>  (620) 
nM

>  <pChEMBL Value>  (620) 
nan

>  <Comment>  (620) 
inactive

>  <Compound Key>  (620) 
SID103904683

>  <Assay>  (620) 
CHEMBL1963742

>  <Assay Description>  (620) 
PUBCHEM_BIOASSAY: Navigating the Kinome. (Class of assay: other) Panel member name: JAK3

>  <BAO Format>  (620) 
assay format

>  <Target>  (620) 
CHEMBL2148

>  <Target Pref. Name>  (620) 
Tyrosine-protein kinase JAK3

>  <Target Organism>  (620) 
Homo sapiens

>  <Target Type>  (620) 
SINGLE PROTEIN

>  <Document>  (620) 
CHEMBL1201862

>  <Source>  (620) 
PubChem BioAssays

>  <Max Phase>  (620) 
0

>  <#Ro5 Violations>  (620) 
0

>  <Molecular Weight>  (620) 
383.45

>  <Ligand Efficiency BEI>  (620) 
nan

>  <Ligand Efficiency LE>  (620) 
nan

>  <Ligand Efficiency LLE>  (620) 
nan

>  <Ligand Efficiency SEI>  (620) 
nan

>  <ALogP>  (620) 
3.64

>  <Assay Organism>  (620) 
nan

>  <Assay Tissue ChEMBL ID>  (620) 
nan

>  <Assay Tissue Name>  (620) 
nan

>  <Assay Cell Type>  (620) 
nan

>  <Assay Subcellular Fraction>  (620) 
nan

>  <Organism Tax ID>  (620) 
9606

>  <BAO Format ID>  (620) 
BAO_0000019

>  <Published Type>  (620) 
nan

>  <Published Relation>  (620) 
nan

>  <Published Value>  (620) 
nan

>  <Published Units>  (620) 
nan

>  <Canonical Smiles>  (620) 
NC(Cc1c[nH]c2ccccc12)C(=O)Nc3cncc(C=Cc4ccncc4)c3

>  <Data Validity Comment>  (620) 
nan

>  <Document Journal>  (620) 
nan

>  <Document Year>  (620) 
nan

>  <SRC ID>  (620) 
7

>  <UO Units>  (620) 
UO_0000065

>  <Potential Duplicate>  (620) 
False

>  <Class>  (620) 
0

$$$$

     RDKit          2D

 26 29  0  0  0  0  0  0  0  0999 V2000
    4.8068    9.4767    0.0000 O   0  0  0  0  0  0  0  0  0  0  0  0
    3.3802    9.0132    0.0000 C   0  0  0  0  0  0  0  0  0  0  0  0
    2.2655   10.0169    0.0000 O   0  0  0  0  0  0  0  0  0  0  0  0
    3.0684    7.5459    0.0000 C   0  0  0  0  0  0  0  0  0  0  0  0
    4.1831    6.5422    0.0000 C   0  0  0  0  0  0  0  0  0  0  0  0
    3.8712    5.0750    0.0000 C   0  0  0  0  0  0  0  0  0  0  0  0
    2.4446    4.6115    0.0000 C   0  0  0  0  0  0  0  0  0  0  0  0
    1.3299    5.6152    0.0000 C   0  0  0  0  0  0  0  0  0  0  0  0
    1.6418    7.0824    0.0000 C   0  0  0  0  0  0  0  0  0  0  0  0
    0.5271    8.0861    0.0000 N   0  0  0  0  0  0  0  0  0  0  0  0
   -0.8995    7.6226    0.0000 C   0  0  0  0  0  0  0  0  0  0  0  0
   -2.0143    8.6263    0.0000 N   0  0  0  0  0  0  0  0  0  0  0  0
   -3.4408    8.1628    0.0000 C   0  0  0  0  0  0  0  0  0  0  0  0
   -3.7527    6.6955    0.0000 N   0  0  0  0  0  0  0  0  0  0  0  0
   -2.6380    5.6918    0.0000 C   0  0  0  0  0  0  0  0  0  0  0  0
   -2.9499    4.2246    0.0000 N   0  0  0  0  0  0  0  0  0  0  0  0
   -1.8351    3.2209    0.0000 C   0  0  0  0  0  0  0  0  0  0  0  0
   -0.4086    3.6844    0.0000 C   0  0  0  0  0  0  0  0  0  0  0  0
    0.7062    2.6807    0.0000 C   0  0  0  0  0  0  0  0  0  0  0  0
    0.3943    1.2135    0.0000 C   0  0  0  0  0  0  0  0  0  0  0  0
    1.2760    0.0000    0.0000 C   0  0  0  0  0  0  0  0  0  0  0  0
    0.3943   -1.2135    0.0000 N   0  0  0  0  0  0  0  0  0  0  0  0
   -1.0323   -0.7500    0.0000 N   0  0  0  0  0  0  0  0  0  0  0  0
   -1.0323    0.7500    0.0000 C   0  0  0  0  0  0  0  0  0  0  0  0
   -2.1470    1.7537    0.0000 C   0  0  0  0  0  0  0  0  0  0  0  0
   -1.2114    6.1554    0.0000 N   0  0  0  0  0  0  0  0  0  0  0  0
  1  2  1  0
  2  3  2  0
  2  4  1  0
  4  5  2  0
  5  6  1  0
  6  7  2  0
  7  8  1  0
  8  9  2  0
  9 10  1  0
 10 11  1  0
 11 12  2  0
 12 13  1  0
 13 14  2  0
 14 15  1  0
 15 16  1  0
 16 17  1  0
 17 18  2  0
 18 19  1  0
 19 20  2  0
 20 21  1  0
 21 22  2  0
 22 23  1  0
 23 24  1  0
 24 25  2  0
 15 26  2  0
  9  4  1  0
 26 11  1  0
 25 17  1  0
 24 20  1  0
M  END
>  <Molecule>  (621) 
CHEMBL1986666

>  <Standard Type>  (621) 
Ki

>  <Standard Relation>  (621) 
=

>  <Standard Value>  (621) 
1000.0

>  <Standard Units>  (621) 
nM

>  <pChEMBL Value>  (621) 
6.0

>  <Comment>  (621) 
active

>  <Compound Key>  (621) 
SID103904616

>  <Assay>  (621) 
CHEMBL1963742

>  <Assay Description>  (621) 
PUBCHEM_BIOASSAY: Navigating the Kinome. (Class of assay: other) Panel member name: JAK3

>  <BAO Format>  (621) 
assay format

>  <Target>  (621) 
CHEMBL2148

>  <Target Pref. Name>  (621) 
Tyrosine-protein kinase JAK3

>  <Target Organism>  (621) 
Homo sapiens

>  <Target Type>  (621) 
SINGLE PROTEIN

>  <Document>  (621) 
CHEMBL1201862

>  <Source>  (621) 
PubChem BioAssays

>  <Max Phase>  (621) 
0

>  <#Ro5 Violations>  (621) 
0

>  <Molecular Weight>  (621) 
347.34

>  <Ligand Efficiency BEI>  (621) 
nan

>  <Ligand Efficiency LE>  (621) 
nan

>  <Ligand Efficiency LLE>  (621) 
nan

>  <Ligand Efficiency SEI>  (621) 
nan

>  <ALogP>  (621) 
2.93

>  <Assay Organism>  (621) 
nan

>  <Assay Tissue ChEMBL ID>  (621) 
nan

>  <Assay Tissue Name>  (621) 
nan

>  <Assay Cell Type>  (621) 
nan

>  <Assay Subcellular Fraction>  (621) 
nan

>  <Organism Tax ID>  (621) 
9606

>  <BAO Format ID>  (621) 
BAO_0000019

>  <Published Type>  (621) 
nan

>  <Published Relation>  (621) 
nan

>  <Published Value>  (621) 
nan

>  <Published Units>  (621) 
nan

>  <Canonical Smiles>  (621) 
OC(=O)c1ccccc1Nc2ncnc(Nc3ccc4cn[nH]c4c3)n2

>  <Data Validity Comment>  (621) 
nan

>  <Document Journal>  (621) 
nan

>  <Document Year>  (621) 
nan

>  <SRC ID>  (621) 
7

>  <UO Units>  (621) 
UO_0000065

>  <Potential Duplicate>  (621) 
False

>  <Class>  (621) 
1

$$$$

     RDKit          2D

 33 37  0  0  0  0  0  0  0  0999 V2000
  -10.1276   -0.1179    0.0000 C   0  0  0  0  0  0  0  0  0  0  0  0
  -10.5911    1.3086    0.0000 C   0  0  0  0  0  0  0  0  0  0  0  0
  -11.0547    2.7352    0.0000 C   0  0  0  0  0  0  0  0  0  0  0  0
  -12.0177    0.8451    0.0000 C   0  0  0  0  0  0  0  0  0  0  0  0
  -12.3296   -0.6221    0.0000 O   0  0  0  0  0  0  0  0  0  0  0  0
   -9.1645    1.7722    0.0000 C   0  0  0  0  0  0  0  0  0  0  0  0
   -8.0498    0.7685    0.0000 N   0  0  0  0  0  0  0  0  0  0  0  0
   -6.6232    1.2320    0.0000 C   0  0  0  0  0  0  0  0  0  0  0  0
   -6.3114    2.6992    0.0000 N   0  0  0  0  0  0  0  0  0  0  0  0
   -4.8848    3.1627    0.0000 C   0  0  0  0  0  0  0  0  0  0  0  0
   -3.7701    2.1590    0.0000 C   0  0  0  0  0  0  0  0  0  0  0  0
   -4.0819    0.6918    0.0000 C   0  0  0  0  0  0  0  0  0  0  0  0
   -5.5085    0.2283    0.0000 N   0  0  0  0  0  0  0  0  0  0  0  0
   -2.9672   -0.3119    0.0000 C   0  0  0  0  0  0  0  0  0  0  0  0
   -3.1240   -1.8037    0.0000 C   0  0  0  0  0  0  0  0  0  0  0  0
   -1.7537   -2.4138    0.0000 N   0  0  0  0  0  0  0  0  0  0  0  0
   -0.7500   -1.2990    0.0000 C   0  0  0  0  0  0  0  0  0  0  0  0
    0.7500   -1.2990    0.0000 C   0  0  0  0  0  0  0  0  0  0  0  0
    1.5000   -2.5981    0.0000 C   0  0  0  0  0  0  0  0  0  0  0  0
    3.0000   -2.5981    0.0000 C   0  0  0  0  0  0  0  0  0  0  0  0
    4.2990   -1.8481    0.0000 C   0  0  0  0  0  0  0  0  0  0  0  0
    4.2990   -3.3481    0.0000 C   0  0  0  0  0  0  0  0  0  0  0  0
    1.5000    0.0000    0.0000 N   0  0  0  0  0  0  0  0  0  0  0  0
    0.7500    1.2990    0.0000 C   0  0  0  0  0  0  0  0  0  0  0  0
   -0.7500    1.2990    0.0000 C   0  0  0  0  0  0  0  0  0  0  0  0
   -1.5000    0.0000    0.0000 N   0  0  0  0  0  0  0  0  0  0  0  0
   -4.4231   -2.5537    0.0000 C   0  0  0  0  0  0  0  0  0  0  0  0
   -5.7221   -1.8037    0.0000 C   0  0  0  0  0  0  0  0  0  0  0  0
   -7.0211   -2.5537    0.0000 C   0  0  0  0  0  0  0  0  0  0  0  0
   -7.0211   -4.0537    0.0000 C   0  0  0  0  0  0  0  0  0  0  0  0
   -8.3202   -4.8037    0.0000 F   0  0  0  0  0  0  0  0  0  0  0  0
   -5.7221   -4.8037    0.0000 C   0  0  0  0  0  0  0  0  0  0  0  0
   -4.4231   -4.0537    0.0000 C   0  0  0  0  0  0  0  0  0  0  0  0
  1  2  1  0
  2  3  1  0
  2  4  1  0
  4  5  1  0
  2  6  1  0
  6  7  1  0
  7  8  1  0
  8  9  2  0
  9 10  1  0
 10 11  2  0
 11 12  1  0
 12 13  2  0
 12 14  1  0
 14 15  2  0
 15 16  1  0
 16 17  2  0
 17 18  1  0
 18 19  1  0
 19 20  1  0
 20 21  1  0
 21 22  1  0
 18 23  2  0
 23 24  1  0
 24 25  2  0
 25 26  1  0
 15 27  1  0
 27 28  2  0
 28 29  1  0
 29 30  2  0
 30 31  1  0
 30 32  1  0
 32 33  2  0
 13  8  1  0
 26 14  1  0
 26 17  1  0
 22 20  1  0
 33 27  1  0
M  END
>  <Molecule>  (622) 
CHEMBL1991800

>  <Standard Type>  (622) 
Ki

>  <Standard Relation>  (622) 
>

>  <Standard Value>  (622) 
1584.89

>  <Standard Units>  (622) 
nM

>  <pChEMBL Value>  (622) 
nan

>  <Comment>  (622) 
inactive

>  <Compound Key>  (622) 
SID103904760

>  <Assay>  (622) 
CHEMBL1963742

>  <Assay Description>  (622) 
PUBCHEM_BIOASSAY: Navigating the Kinome. (Class of assay: other) Panel member name: JAK3

>  <BAO Format>  (622) 
assay format

>  <Target>  (622) 
CHEMBL2148

>  <Target Pref. Name>  (622) 
Tyrosine-protein kinase JAK3

>  <Target Organism>  (622) 
Homo sapiens

>  <Target Type>  (622) 
SINGLE PROTEIN

>  <Document>  (622) 
CHEMBL1201862

>  <Source>  (622) 
PubChem BioAssays

>  <Max Phase>  (622) 
0

>  <#Ro5 Violations>  (622) 
0

>  <Molecular Weight>  (622) 
446.53

>  <Ligand Efficiency BEI>  (622) 
nan

>  <Ligand Efficiency LE>  (622) 
nan

>  <Ligand Efficiency LLE>  (622) 
nan

>  <Ligand Efficiency SEI>  (622) 
nan

>  <ALogP>  (622) 
4.38

>  <Assay Organism>  (622) 
nan

>  <Assay Tissue ChEMBL ID>  (622) 
nan

>  <Assay Tissue Name>  (622) 
nan

>  <Assay Cell Type>  (622) 
nan

>  <Assay Subcellular Fraction>  (622) 
nan

>  <Organism Tax ID>  (622) 
9606

>  <BAO Format ID>  (622) 
BAO_0000019

>  <Published Type>  (622) 
nan

>  <Published Relation>  (622) 
nan

>  <Published Value>  (622) 
nan

>  <Published Units>  (622) 
nan

>  <Canonical Smiles>  (622) 
CC(C)(CO)CNc1nccc(n1)c2c(nc3c(CC4CC4)nccn23)c5ccc(F)cc5

>  <Data Validity Comment>  (622) 
nan

>  <Document Journal>  (622) 
nan

>  <Document Year>  (622) 
nan

>  <SRC ID>  (622) 
7

>  <UO Units>  (622) 
UO_0000065

>  <Potential Duplicate>  (622) 
False

>  <Class>  (622) 
0

$$$$

     RDKit          2D

 30 32  0  0  0  0  0  0  0  0999 V2000
    3.7500   -1.2990    0.0000 C   0  0  0  0  0  0  0  0  0  0  0  0
    3.0000    0.0000    0.0000 O   0  0  0  0  0  0  0  0  0  0  0  0
    1.5000    0.0000    0.0000 C   0  0  0  0  0  0  0  0  0  0  0  0
    0.7500   -1.2990    0.0000 C   0  0  0  0  0  0  0  0  0  0  0  0
   -0.7500   -1.2990    0.0000 C   0  0  0  0  0  0  0  0  0  0  0  0
   -1.5000    0.0000    0.0000 C   0  0  0  0  0  0  0  0  0  0  0  0
   -0.7500    1.2990    0.0000 C   0  0  0  0  0  0  0  0  0  0  0  0
    0.7500    1.2990    0.0000 C   0  0  0  0  0  0  0  0  0  0  0  0
   -1.5000    2.5981    0.0000 C   0  0  0  0  0  0  0  0  0  0  0  0
   -0.7500    3.8971    0.0000 C   0  0  0  0  0  0  0  0  0  0  0  0
   -3.0000    2.5981    0.0000 N   0  0  0  0  0  0  0  0  0  0  0  0
   -3.7500    3.8971    0.0000 C   0  0  0  0  0  0  0  0  0  0  0  0
   -3.0000    5.1962    0.0000 O   0  0  0  0  0  0  0  0  0  0  0  0
   -5.2500    3.8971    0.0000 C   0  0  0  0  0  0  0  0  0  0  0  0
   -6.0000    5.1962    0.0000 C   0  0  0  0  0  0  0  0  0  0  0  0
   -7.5000    5.1962    0.0000 C   0  0  0  0  0  0  0  0  0  0  0  0
   -8.2500    3.8971    0.0000 C   0  0  0  0  0  0  0  0  0  0  0  0
   -7.5000    2.5981    0.0000 C   0  0  0  0  0  0  0  0  0  0  0  0
   -6.0000    2.5981    0.0000 C   0  0  0  0  0  0  0  0  0  0  0  0
   -5.2500    1.2990    0.0000 N   0  0  0  0  0  0  0  0  0  0  0  0
   -6.0000    0.0000    0.0000 C   0  0  0  0  0  0  0  0  0  0  0  0
   -5.2500   -1.2990    0.0000 C   0  0  0  0  0  0  0  0  0  0  0  0
   -6.0000   -2.5981    0.0000 C   0  0  0  0  0  0  0  0  0  0  0  0
   -5.2500   -3.8971    0.0000 N   0  0  0  0  0  0  0  0  0  0  0  0
   -9.7500    3.8971    0.0000 C   0  0  0  0  0  0  0  0  0  0  0  0
  -10.5000    5.1962    0.0000 C   0  0  0  0  0  0  0  0  0  0  0  0
  -12.0000    5.1962    0.0000 C   0  0  0  0  0  0  0  0  0  0  0  0
  -12.7500    3.8971    0.0000 N   0  0  0  0  0  0  0  0  0  0  0  0
  -12.0000    2.5981    0.0000 C   0  0  0  0  0  0  0  0  0  0  0  0
  -10.5000    2.5981    0.0000 C   0  0  0  0  0  0  0  0  0  0  0  0
  1  2  1  0
  2  3  1  0
  3  4  2  0
  4  5  1  0
  5  6  2  0
  6  7  1  0
  7  8  2  0
  7  9  1  0
  9 10  1  0
  9 11  1  0
 11 12  1  0
 12 13  2  0
 12 14  1  0
 14 15  2  0
 15 16  1  0
 16 17  2  0
 17 18  1  0
 18 19  2  0
 19 20  1  0
 20 21  1  0
 21 22  1  0
 22 23  1  0
 23 24  1  0
 17 25  1  0
 25 26  2  0
 26 27  1  0
 27 28  2  0
 28 29  1  0
 29 30  2  0
  8  3  1  0
 19 14  1  0
 30 25  1  0
M  END
>  <Molecule>  (623) 
CHEMBL2006188

>  <Standard Type>  (623) 
Ki

>  <Standard Relation>  (623) 
>

>  <Standard Value>  (623) 
1584.89

>  <Standard Units>  (623) 
nM

>  <pChEMBL Value>  (623) 
nan

>  <Comment>  (623) 
inactive

>  <Compound Key>  (623) 
SID103904561

>  <Assay>  (623) 
CHEMBL1963742

>  <Assay Description>  (623) 
PUBCHEM_BIOASSAY: Navigating the Kinome. (Class of assay: other) Panel member name: JAK3

>  <BAO Format>  (623) 
assay format

>  <Target>  (623) 
CHEMBL2148

>  <Target Pref. Name>  (623) 
Tyrosine-protein kinase JAK3

>  <Target Organism>  (623) 
Homo sapiens

>  <Target Type>  (623) 
SINGLE PROTEIN

>  <Document>  (623) 
CHEMBL1201862

>  <Source>  (623) 
PubChem BioAssays

>  <Max Phase>  (623) 
0

>  <#Ro5 Violations>  (623) 
0

>  <Molecular Weight>  (623) 
404.51

>  <Ligand Efficiency BEI>  (623) 
nan

>  <Ligand Efficiency LE>  (623) 
nan

>  <Ligand Efficiency LLE>  (623) 
nan

>  <Ligand Efficiency SEI>  (623) 
nan

>  <ALogP>  (623) 
4.01

>  <Assay Organism>  (623) 
nan

>  <Assay Tissue ChEMBL ID>  (623) 
nan

>  <Assay Tissue Name>  (623) 
nan

>  <Assay Cell Type>  (623) 
nan

>  <Assay Subcellular Fraction>  (623) 
nan

>  <Organism Tax ID>  (623) 
9606

>  <BAO Format ID>  (623) 
BAO_0000019

>  <Published Type>  (623) 
nan

>  <Published Relation>  (623) 
nan

>  <Published Value>  (623) 
nan

>  <Published Units>  (623) 
nan

>  <Canonical Smiles>  (623) 
COc1cccc(c1)C(C)NC(=O)c2ccc(cc2NCCCN)c3ccncc3

>  <Data Validity Comment>  (623) 
nan

>  <Document Journal>  (623) 
nan

>  <Document Year>  (623) 
nan

>  <SRC ID>  (623) 
7

>  <UO Units>  (623) 
UO_0000065

>  <Potential Duplicate>  (623) 
False

>  <Class>  (623) 
0

$$$$

     RDKit          2D

 22 25  0  0  0  0  0  0  0  0999 V2000
   -6.9177    4.3013    0.0000 O   0  0  0  0  0  0  0  0  0  0  0  0
   -5.4912    4.7648    0.0000 C   0  0  0  0  0  0  0  0  0  0  0  0
   -5.1793    6.2320    0.0000 N   0  0  0  0  0  0  0  0  0  0  0  0
   -3.7527    6.6955    0.0000 C   0  0  0  0  0  0  0  0  0  0  0  0
   -2.6380    5.6918    0.0000 C   0  0  0  0  0  0  0  0  0  0  0  0
   -2.9499    4.2246    0.0000 C   0  0  0  0  0  0  0  0  0  0  0  0
   -4.3764    3.7611    0.0000 N   0  0  0  0  0  0  0  0  0  0  0  0
   -1.8351    3.2209    0.0000 C   0  0  0  0  0  0  0  0  0  0  0  0
   -0.4086    3.6844    0.0000 C   0  0  0  0  0  0  0  0  0  0  0  0
    0.7062    2.6807    0.0000 C   0  0  0  0  0  0  0  0  0  0  0  0
    0.3943    1.2135    0.0000 C   0  0  0  0  0  0  0  0  0  0  0  0
    1.2760    0.0000    0.0000 N   0  0  0  0  0  0  0  0  0  0  0  0
    0.3943   -1.2135    0.0000 N   0  0  0  0  0  0  0  0  0  0  0  0
   -1.0323   -0.7500    0.0000 C   0  0  0  0  0  0  0  0  0  0  0  0
   -1.0323    0.7500    0.0000 C   0  0  0  0  0  0  0  0  0  0  0  0
   -2.1470    1.7537    0.0000 C   0  0  0  0  0  0  0  0  0  0  0  0
   -3.4408    8.1628    0.0000 C   0  0  0  0  0  0  0  0  0  0  0  0
   -2.0143    8.6263    0.0000 C   0  0  0  0  0  0  0  0  0  0  0  0
   -1.7024   10.0935    0.0000 C   0  0  0  0  0  0  0  0  0  0  0  0
   -2.8171   11.0972    0.0000 C   0  0  0  0  0  0  0  0  0  0  0  0
   -4.2437   10.6337    0.0000 C   0  0  0  0  0  0  0  0  0  0  0  0
   -4.5556    9.1664    0.0000 C   0  0  0  0  0  0  0  0  0  0  0  0
  1  2  2  0
  2  3  1  0
  3  4  1  0
  4  5  2  0
  5  6  1  0
  6  7  2  0
  6  8  1  0
  8  9  2  0
  9 10  1  0
 10 11  2  0
 11 12  1  0
 12 13  1  0
 13 14  2  0
 14 15  1  0
 15 16  2  0
  4 17  1  0
 17 18  2  0
 18 19  1  0
 19 20  2  0
 20 21  1  0
 21 22  2  0
  7  2  1  0
 16  8  1  0
 15 11  1  0
 22 17  1  0
M  END
>  <Molecule>  (624) 
CHEMBL526133

>  <Standard Type>  (624) 
Ki

>  <Standard Relation>  (624) 
>

>  <Standard Value>  (624) 
1584.89

>  <Standard Units>  (624) 
nM

>  <pChEMBL Value>  (624) 
nan

>  <Comment>  (624) 
inactive

>  <Compound Key>  (624) 
SID103904527

>  <Assay>  (624) 
CHEMBL1963742

>  <Assay Description>  (624) 
PUBCHEM_BIOASSAY: Navigating the Kinome. (Class of assay: other) Panel member name: JAK3

>  <BAO Format>  (624) 
assay format

>  <Target>  (624) 
CHEMBL2148

>  <Target Pref. Name>  (624) 
Tyrosine-protein kinase JAK3

>  <Target Organism>  (624) 
Homo sapiens

>  <Target Type>  (624) 
SINGLE PROTEIN

>  <Document>  (624) 
CHEMBL1201862

>  <Source>  (624) 
PubChem BioAssays

>  <Max Phase>  (624) 
0

>  <#Ro5 Violations>  (624) 
0

>  <Molecular Weight>  (624) 
288.31

>  <Ligand Efficiency BEI>  (624) 
nan

>  <Ligand Efficiency LE>  (624) 
nan

>  <Ligand Efficiency LLE>  (624) 
nan

>  <Ligand Efficiency SEI>  (624) 
nan

>  <ALogP>  (624) 
2.98

>  <Assay Organism>  (624) 
nan

>  <Assay Tissue ChEMBL ID>  (624) 
nan

>  <Assay Tissue Name>  (624) 
nan

>  <Assay Cell Type>  (624) 
nan

>  <Assay Subcellular Fraction>  (624) 
nan

>  <Organism Tax ID>  (624) 
9606

>  <BAO Format ID>  (624) 
BAO_0000019

>  <Published Type>  (624) 
nan

>  <Published Relation>  (624) 
nan

>  <Published Value>  (624) 
nan

>  <Published Units>  (624) 
nan

>  <Canonical Smiles>  (624) 
O=C1NC(=CC(=N1)c2ccc3[nH]ncc3c2)c4ccccc4

>  <Data Validity Comment>  (624) 
nan

>  <Document Journal>  (624) 
nan

>  <Document Year>  (624) 
nan

>  <SRC ID>  (624) 
7

>  <UO Units>  (624) 
UO_0000065

>  <Potential Duplicate>  (624) 
False

>  <Class>  (624) 
0

$$$$

     RDKit          2D

 20 23  0  0  0  0  0  0  0  0999 V2000
   -4.6384   -8.1318    0.0000 Br  0  0  0  0  0  0  0  0  0  0  0  0
   -4.3485   -6.6601    0.0000 C   0  0  0  0  0  0  0  0  0  0  0  0
   -5.4781   -5.6732    0.0000 C   0  0  0  0  0  0  0  0  0  0  0  0
   -5.1882   -4.2014    0.0000 C   0  0  0  0  0  0  0  0  0  0  0  0
   -3.7687   -3.7166    0.0000 C   0  0  0  0  0  0  0  0  0  0  0  0
   -3.1792   -2.3373    0.0000 N   0  0  0  0  0  0  0  0  0  0  0  0
   -1.6852   -2.4718    0.0000 C   0  0  0  0  0  0  0  0  0  0  0  0
   -1.3515   -3.9342    0.0000 C   0  0  0  0  0  0  0  0  0  0  0  0
    0.0000   -4.5850    0.0000 C   0  0  0  0  0  0  0  0  0  0  0  0
    1.3515   -3.9342    0.0000 C   0  0  0  0  0  0  0  0  0  0  0  0
    2.5242   -4.8694    0.0000 O   0  0  0  0  0  0  0  0  0  0  0  0
    1.6852   -2.4718    0.0000 N   0  0  0  0  0  0  0  0  0  0  0  0
    0.7500   -1.2990    0.0000 C   0  0  0  0  0  0  0  0  0  0  0  0
    1.5000    0.0000    0.0000 C   0  0  0  0  0  0  0  0  0  0  0  0
    0.7500    1.2990    0.0000 C   0  0  0  0  0  0  0  0  0  0  0  0
   -0.7500    1.2990    0.0000 C   0  0  0  0  0  0  0  0  0  0  0  0
   -1.5000    0.0000    0.0000 N   0  0  0  0  0  0  0  0  0  0  0  0
   -0.7500   -1.2990    0.0000 C   0  0  0  0  0  0  0  0  0  0  0  0
   -2.6391   -4.7035    0.0000 C   0  0  0  0  0  0  0  0  0  0  0  0
   -2.9290   -6.1752    0.0000 C   0  0  0  0  0  0  0  0  0  0  0  0
  1  2  1  0
  2  3  2  0
  3  4  1  0
  4  5  2  0
  5  6  1  0
  6  7  1  0
  7  8  2  0
  8  9  1  0
  9 10  1  0
 10 11  2  0
 10 12  1  0
 12 13  1  0
 13 14  2  0
 14 15  1  0
 15 16  2  0
 16 17  1  0
 17 18  2  0
  8 19  1  0
 19 20  2  0
 20  2  1  0
 19  5  1  0
 18  7  1  0
 18 13  1  0
M  END
>  <Molecule>  (625) 
CHEMBL336961

>  <Standard Type>  (625) 
Ki

>  <Standard Relation>  (625) 
>

>  <Standard Value>  (625) 
1584.89

>  <Standard Units>  (625) 
nM

>  <pChEMBL Value>  (625) 
nan

>  <Comment>  (625) 
inactive

>  <Compound Key>  (625) 
SID103905441

>  <Assay>  (625) 
CHEMBL1963742

>  <Assay Description>  (625) 
PUBCHEM_BIOASSAY: Navigating the Kinome. (Class of assay: other) Panel member name: JAK3

>  <BAO Format>  (625) 
assay format

>  <Target>  (625) 
CHEMBL2148

>  <Target Pref. Name>  (625) 
Tyrosine-protein kinase JAK3

>  <Target Organism>  (625) 
Homo sapiens

>  <Target Type>  (625) 
SINGLE PROTEIN

>  <Document>  (625) 
CHEMBL1201862

>  <Source>  (625) 
PubChem BioAssays

>  <Max Phase>  (625) 
0

>  <#Ro5 Violations>  (625) 
0

>  <Molecular Weight>  (625) 
328.17

>  <Ligand Efficiency BEI>  (625) 
nan

>  <Ligand Efficiency LE>  (625) 
nan

>  <Ligand Efficiency LLE>  (625) 
nan

>  <Ligand Efficiency SEI>  (625) 
nan

>  <ALogP>  (625) 
3.49

>  <Assay Organism>  (625) 
nan

>  <Assay Tissue ChEMBL ID>  (625) 
nan

>  <Assay Tissue Name>  (625) 
nan

>  <Assay Cell Type>  (625) 
nan

>  <Assay Subcellular Fraction>  (625) 
nan

>  <Organism Tax ID>  (625) 
9606

>  <BAO Format ID>  (625) 
BAO_0000019

>  <Published Type>  (625) 
nan

>  <Published Relation>  (625) 
nan

>  <Published Value>  (625) 
nan

>  <Published Units>  (625) 
nan

>  <Canonical Smiles>  (625) 
Brc1ccc2[nH]c3c(CC(=O)Nc4cccnc34)c2c1

>  <Data Validity Comment>  (625) 
nan

>  <Document Journal>  (625) 
nan

>  <Document Year>  (625) 
nan

>  <SRC ID>  (625) 
7

>  <UO Units>  (625) 
UO_0000065

>  <Potential Duplicate>  (625) 
False

>  <Class>  (625) 
0

$$$$

     RDKit          2D

 43 49  0  0  0  0  0  0  0  0999 V2000
    1.9788    6.5212    0.0000 O   0  0  0  0  0  0  0  0  0  0  0  0
    1.5153    7.9478    0.0000 C   0  0  0  0  0  0  0  0  0  0  0  0
    2.5190    9.0625    0.0000 C   0  0  0  0  0  0  0  0  0  0  0  0
    3.9862    8.7506    0.0000 C   0  0  0  0  0  0  0  0  0  0  0  0
    4.4497    7.3241    0.0000 C   0  0  0  0  0  0  0  0  0  0  0  0
    5.9169    7.0122    0.0000 C   0  0  0  0  0  0  0  0  0  0  0  0
    6.9206    8.1269    0.0000 C   0  0  0  0  0  0  0  0  0  0  0  0
    6.4571    9.5535    0.0000 C   0  0  0  0  0  0  0  0  0  0  0  0
    4.9899    9.8654    0.0000 C   0  0  0  0  0  0  0  0  0  0  0  0
    0.0481    8.2597    0.0000 N   0  0  0  0  0  0  0  0  0  0  0  0
   -0.9556    7.1449    0.0000 C   0  0  0  0  0  0  0  0  0  0  0  0
   -2.4229    7.4568    0.0000 C   0  0  0  0  0  0  0  0  0  0  0  0
   -3.4266    6.3421    0.0000 C   0  0  0  0  0  0  0  0  0  0  0  0
   -2.9630    4.9155    0.0000 C   0  0  0  0  0  0  0  0  0  0  0  0
   -1.4958    4.6036    0.0000 C   0  0  0  0  0  0  0  0  0  0  0  0
   -0.4921    5.7184    0.0000 C   0  0  0  0  0  0  0  0  0  0  0  0
   -1.0323    3.1771    0.0000 C   0  0  0  0  0  0  0  0  0  0  0  0
    0.3943    2.7135    0.0000 N   0  0  0  0  0  0  0  0  0  0  0  0
    0.3943    1.2135    0.0000 C   0  0  0  0  0  0  0  0  0  0  0  0
    1.2760    0.0000    0.0000 S   0  0  0  0  0  0  0  0  0  0  0  0
    0.3943   -1.2135    0.0000 C   0  0  0  0  0  0  0  0  0  0  0  0
   -1.0323   -0.7500    0.0000 C   0  0  0  0  0  0  0  0  0  0  0  0
   -1.0323    0.7500    0.0000 N   0  0  0  0  0  0  0  0  0  0  0  0
   -1.9140    1.9635    0.0000 C   0  0  0  0  0  0  0  0  0  0  0  0
   -3.4140    1.9635    0.0000 C   0  0  0  0  0  0  0  0  0  0  0  0
   -4.1640    3.2626    0.0000 C   0  0  0  0  0  0  0  0  0  0  0  0
   -5.6640    3.2626    0.0000 C   0  0  0  0  0  0  0  0  0  0  0  0
   -6.4140    1.9635    0.0000 N   0  0  0  0  0  0  0  0  0  0  0  0
   -5.6640    0.6645    0.0000 C   0  0  0  0  0  0  0  0  0  0  0  0
   -6.4140   -0.6346    0.0000 N   0  0  0  0  0  0  0  0  0  0  0  0
   -7.9140   -0.6346    0.0000 C   0  0  0  0  0  0  0  0  0  0  0  0
   -8.6640    0.6645    0.0000 C   0  0  0  0  0  0  0  0  0  0  0  0
  -10.1640    0.6645    0.0000 C   0  0  0  0  0  0  0  0  0  0  0  0
  -10.9140   -0.6346    0.0000 C   0  0  0  0  0  0  0  0  0  0  0  0
  -10.1640   -1.9336    0.0000 C   0  0  0  0  0  0  0  0  0  0  0  0
   -8.6640   -1.9336    0.0000 C   0  0  0  0  0  0  0  0  0  0  0  0
  -12.4140   -0.6346    0.0000 N   0  0  0  0  0  0  0  0  0  0  0  0
  -13.1640    0.6645    0.0000 C   0  0  0  0  0  0  0  0  0  0  0  0
  -14.6640    0.6645    0.0000 C   0  0  0  0  0  0  0  0  0  0  0  0
  -15.4140   -0.6346    0.0000 O   0  0  0  0  0  0  0  0  0  0  0  0
  -14.6640   -1.9336    0.0000 C   0  0  0  0  0  0  0  0  0  0  0  0
  -13.1640   -1.9336    0.0000 C   0  0  0  0  0  0  0  0  0  0  0  0
   -4.1640    0.6645    0.0000 N   0  0  0  0  0  0  0  0  0  0  0  0
  1  2  2  0
  2  3  1  0
  3  4  1  0
  4  5  2  0
  5  6  1  0
  6  7  2  0
  7  8  1  0
  8  9  2  0
  2 10  1  0
 10 11  1  0
 11 12  2  0
 12 13  1  0
 13 14  2  0
 14 15  1  0
 15 16  2  0
 15 17  1  0
 17 18  1  0
 18 19  2  0
 19 20  1  0
 20 21  1  0
 21 22  2  0
 22 23  1  0
 23 24  1  0
 24 25  1  0
 25 26  2  0
 26 27  1  0
 27 28  2  0
 28 29  1  0
 29 30  1  0
 30 31  1  0
 31 32  2  0
 32 33  1  0
 33 34  2  0
 34 35  1  0
 35 36  2  0
 34 37  1  0
 37 38  1  0
 38 39  1  0
 39 40  1  0
 40 41  1  0
 41 42  1  0
 29 43  2  0
  9  4  1  0
 16 11  1  0
 24 17  2  0
 23 19  1  0
 43 25  1  0
 36 31  1  0
 42 37  1  0
M  END
>  <Molecule>  (626) 
CHEMBL1090356

>  <Standard Type>  (626) 
Ki

>  <Standard Relation>  (626) 
>

>  <Standard Value>  (626) 
1584.89

>  <Standard Units>  (626) 
nM

>  <pChEMBL Value>  (626) 
nan

>  <Comment>  (626) 
inactive

>  <Compound Key>  (626) 
SID103904417

>  <Assay>  (626) 
CHEMBL1963742

>  <Assay Description>  (626) 
PUBCHEM_BIOASSAY: Navigating the Kinome. (Class of assay: other) Panel member name: JAK3

>  <BAO Format>  (626) 
assay format

>  <Target>  (626) 
CHEMBL2148

>  <Target Pref. Name>  (626) 
Tyrosine-protein kinase JAK3

>  <Target Organism>  (626) 
Homo sapiens

>  <Target Type>  (626) 
SINGLE PROTEIN

>  <Document>  (626) 
CHEMBL1201862

>  <Source>  (626) 
PubChem BioAssays

>  <Max Phase>  (626) 
0

>  <#Ro5 Violations>  (626) 
2

>  <Molecular Weight>  (626) 
587.71

>  <Ligand Efficiency BEI>  (626) 
nan

>  <Ligand Efficiency LE>  (626) 
nan

>  <Ligand Efficiency LLE>  (626) 
nan

>  <Ligand Efficiency SEI>  (626) 
nan

>  <ALogP>  (626) 
6.28

>  <Assay Organism>  (626) 
nan

>  <Assay Tissue ChEMBL ID>  (626) 
nan

>  <Assay Tissue Name>  (626) 
nan

>  <Assay Cell Type>  (626) 
nan

>  <Assay Subcellular Fraction>  (626) 
nan

>  <Organism Tax ID>  (626) 
9606

>  <BAO Format ID>  (626) 
BAO_0000019

>  <Published Type>  (626) 
nan

>  <Published Relation>  (626) 
nan

>  <Published Value>  (626) 
nan

>  <Published Units>  (626) 
nan

>  <Canonical Smiles>  (626) 
O=C(Cc1ccccc1)Nc2cccc(c2)c3nc4sccn4c3c5ccnc(Nc6ccc(cc6)N7CCOCC7)n5

>  <Data Validity Comment>  (626) 
nan

>  <Document Journal>  (626) 
nan

>  <Document Year>  (626) 
nan

>  <SRC ID>  (626) 
7

>  <UO Units>  (626) 
UO_0000065

>  <Potential Duplicate>  (626) 
False

>  <Class>  (626) 
0

$$$$

     RDKit          2D

 24 26  0  0  0  0  0  0  0  0999 V2000
    0.4022   -7.7629    0.0000 C   0  0  0  0  0  0  0  0  0  0  0  0
    0.2454   -6.2711    0.0000 N   0  0  0  0  0  0  0  0  0  0  0  0
    1.3601   -5.2674    0.0000 C   0  0  0  0  0  0  0  0  0  0  0  0
    0.7500   -3.8971    0.0000 C   0  0  0  0  0  0  0  0  0  0  0  0
    1.5000   -2.5981    0.0000 N   0  0  0  0  0  0  0  0  0  0  0  0
    0.7500   -1.2990    0.0000 C   0  0  0  0  0  0  0  0  0  0  0  0
    1.5000    0.0000    0.0000 N   0  0  0  0  0  0  0  0  0  0  0  0
    0.7500    1.2990    0.0000 C   0  0  0  0  0  0  0  0  0  0  0  0
   -0.7500    1.2990    0.0000 C   0  0  0  0  0  0  0  0  0  0  0  0
   -1.5000    2.5981    0.0000 Br  0  0  0  0  0  0  0  0  0  0  0  0
   -1.5000    0.0000    0.0000 C   0  0  0  0  0  0  0  0  0  0  0  0
   -3.0000    0.0000    0.0000 N   0  0  0  0  0  0  0  0  0  0  0  0
   -3.7500    1.2990    0.0000 C   0  0  0  0  0  0  0  0  0  0  0  0
   -3.0000    2.5981    0.0000 C   0  0  0  0  0  0  0  0  0  0  0  0
   -3.7500    3.8971    0.0000 C   0  0  0  0  0  0  0  0  0  0  0  0
   -5.2500    3.8971    0.0000 C   0  0  0  0  0  0  0  0  0  0  0  0
   -6.0000    2.5981    0.0000 C   0  0  0  0  0  0  0  0  0  0  0  0
   -5.2500    1.2990    0.0000 C   0  0  0  0  0  0  0  0  0  0  0  0
   -6.0000    0.0000    0.0000 C   0  0  0  0  0  0  0  0  0  0  0  0
   -5.2500   -1.2990    0.0000 O   0  0  0  0  0  0  0  0  0  0  0  0
   -7.5000    0.0000    0.0000 N   0  0  0  0  0  0  0  0  0  0  0  0
   -0.7500   -1.2990    0.0000 N   0  0  0  0  0  0  0  0  0  0  0  0
   -0.7418   -4.0539    0.0000 C   0  0  0  0  0  0  0  0  0  0  0  0
   -1.0537   -5.5211    0.0000 N   0  0  0  0  0  0  0  0  0  0  0  0
  1  2  1  0
  2  3  1  0
  3  4  2  0
  4  5  1  0
  5  6  1  0
  6  7  2  0
  7  8  1  0
  8  9  2  0
  9 10  1  0
  9 11  1  0
 11 12  1  0
 12 13  1  0
 13 14  2  0
 14 15  1  0
 15 16  2  0
 16 17  1  0
 17 18  2  0
 18 19  1  0
 19 20  2  0
 19 21  1  0
 11 22  2  0
  4 23  1  0
 23 24  2  0
 24  2  1  0
 22  6  1  0
 18 13  1  0
M  END
>  <Molecule>  (627) 
CHEMBL1994669

>  <Standard Type>  (627) 
Ki

>  <Standard Relation>  (627) 
=

>  <Standard Value>  (627) 
3.162

>  <Standard Units>  (627) 
nM

>  <pChEMBL Value>  (627) 
8.5

>  <Comment>  (627) 
active

>  <Compound Key>  (627) 
SID103904605

>  <Assay>  (627) 
CHEMBL1963742

>  <Assay Description>  (627) 
PUBCHEM_BIOASSAY: Navigating the Kinome. (Class of assay: other) Panel member name: JAK3

>  <BAO Format>  (627) 
assay format

>  <Target>  (627) 
CHEMBL2148

>  <Target Pref. Name>  (627) 
Tyrosine-protein kinase JAK3

>  <Target Organism>  (627) 
Homo sapiens

>  <Target Type>  (627) 
SINGLE PROTEIN

>  <Document>  (627) 
CHEMBL1201862

>  <Source>  (627) 
PubChem BioAssays

>  <Max Phase>  (627) 
0

>  <#Ro5 Violations>  (627) 
0

>  <Molecular Weight>  (627) 
388.23

>  <Ligand Efficiency BEI>  (627) 
nan

>  <Ligand Efficiency LE>  (627) 
nan

>  <Ligand Efficiency LLE>  (627) 
nan

>  <Ligand Efficiency SEI>  (627) 
nan

>  <ALogP>  (627) 
2.56

>  <Assay Organism>  (627) 
nan

>  <Assay Tissue ChEMBL ID>  (627) 
nan

>  <Assay Tissue Name>  (627) 
nan

>  <Assay Cell Type>  (627) 
nan

>  <Assay Subcellular Fraction>  (627) 
nan

>  <Organism Tax ID>  (627) 
9606

>  <BAO Format ID>  (627) 
BAO_0000019

>  <Published Type>  (627) 
nan

>  <Published Relation>  (627) 
nan

>  <Published Value>  (627) 
nan

>  <Published Units>  (627) 
nan

>  <Canonical Smiles>  (627) 
Cn1cc(Nc2ncc(Br)c(Nc3ccccc3C(=O)N)n2)cn1

>  <Data Validity Comment>  (627) 
nan

>  <Document Journal>  (627) 
nan

>  <Document Year>  (627) 
nan

>  <SRC ID>  (627) 
7

>  <UO Units>  (627) 
UO_0000065

>  <Potential Duplicate>  (627) 
False

>  <Class>  (627) 
1

$$$$

     RDKit          2D

 17 19  0  0  0  0  0  0  0  0999 V2000
   -0.0000   -5.1073    0.0000 N   0  0  0  0  0  0  0  0  0  0  0  0
   -0.0000   -3.6073    0.0000 C   0  0  0  0  0  0  0  0  0  0  0  0
    1.2135   -2.7256    0.0000 N   0  0  0  0  0  0  0  0  0  0  0  0
    0.7500   -1.2990    0.0000 C   0  0  0  0  0  0  0  0  0  0  0  0
    1.5000    0.0000    0.0000 C   0  0  0  0  0  0  0  0  0  0  0  0
    0.7500    1.2990    0.0000 C   0  0  0  0  0  0  0  0  0  0  0  0
   -0.7500    1.2990    0.0000 C   0  0  0  0  0  0  0  0  0  0  0  0
   -1.5000    0.0000    0.0000 C   0  0  0  0  0  0  0  0  0  0  0  0
   -0.7500   -1.2990    0.0000 C   0  0  0  0  0  0  0  0  0  0  0  0
   -1.2135   -2.7256    0.0000 N   0  0  0  0  0  0  0  0  0  0  0  0
   -2.6401   -3.1891    0.0000 C   0  0  0  0  0  0  0  0  0  0  0  0
   -3.1036   -4.6157    0.0000 N   0  0  0  0  0  0  0  0  0  0  0  0
   -4.6036   -4.6157    0.0000 C   0  0  0  0  0  0  0  0  0  0  0  0
   -5.0672   -3.1891    0.0000 C   0  0  0  0  0  0  0  0  0  0  0  0
   -3.8536   -2.3075    0.0000 S   0  0  0  0  0  0  0  0  0  0  0  0
   -1.5000    2.5981    0.0000 C   0  0  0  0  0  0  0  0  0  0  0  0
   -2.2500    3.8971    0.0000 N   0  0  0  0  0  0  0  0  0  0  0  0
  1  2  1  0
  2  3  2  0
  3  4  1  0
  4  5  2  0
  5  6  1  0
  6  7  2  0
  7  8  1  0
  8  9  2  0
  9 10  1  0
 10 11  1  0
 11 12  2  0
 12 13  1  0
 13 14  2  0
 14 15  1  0
  7 16  1  0
 16 17  3  0
 10  2  1  0
  9  4  1  0
 15 11  1  0
M  END
>  <Molecule>  (628) 
CHEMBL1988805

>  <Standard Type>  (628) 
Ki

>  <Standard Relation>  (628) 
>

>  <Standard Value>  (628) 
5011.87

>  <Standard Units>  (628) 
nM

>  <pChEMBL Value>  (628) 
nan

>  <Comment>  (628) 
inactive

>  <Compound Key>  (628) 
SID103904820

>  <Assay>  (628) 
CHEMBL1963742

>  <Assay Description>  (628) 
PUBCHEM_BIOASSAY: Navigating the Kinome. (Class of assay: other) Panel member name: JAK3

>  <BAO Format>  (628) 
assay format

>  <Target>  (628) 
CHEMBL2148

>  <Target Pref. Name>  (628) 
Tyrosine-protein kinase JAK3

>  <Target Organism>  (628) 
Homo sapiens

>  <Target Type>  (628) 
SINGLE PROTEIN

>  <Document>  (628) 
CHEMBL1201862

>  <Source>  (628) 
PubChem BioAssays

>  <Max Phase>  (628) 
0

>  <#Ro5 Violations>  (628) 
0

>  <Molecular Weight>  (628) 
241.28

>  <Ligand Efficiency BEI>  (628) 
nan

>  <Ligand Efficiency LE>  (628) 
nan

>  <Ligand Efficiency LLE>  (628) 
nan

>  <Ligand Efficiency SEI>  (628) 
nan

>  <ALogP>  (628) 
1.94

>  <Assay Organism>  (628) 
nan

>  <Assay Tissue ChEMBL ID>  (628) 
nan

>  <Assay Tissue Name>  (628) 
nan

>  <Assay Cell Type>  (628) 
nan

>  <Assay Subcellular Fraction>  (628) 
nan

>  <Organism Tax ID>  (628) 
9606

>  <BAO Format ID>  (628) 
BAO_0000019

>  <Published Type>  (628) 
nan

>  <Published Relation>  (628) 
nan

>  <Published Value>  (628) 
nan

>  <Published Units>  (628) 
nan

>  <Canonical Smiles>  (628) 
Nc1nc2ccc(cc2n1c3nccs3)C#N

>  <Data Validity Comment>  (628) 
nan

>  <Document Journal>  (628) 
nan

>  <Document Year>  (628) 
nan

>  <SRC ID>  (628) 
7

>  <UO Units>  (628) 
UO_0000065

>  <Potential Duplicate>  (628) 
False

>  <Class>  (628) 
0

$$$$

     RDKit          2D

 21 23  0  0  0  0  0  0  0  0999 V2000
    3.0000    0.0000    0.0000 O   0  0  0  0  0  0  0  0  0  0  0  0
    1.5000    0.0000    0.0000 C   0  0  0  0  0  0  0  0  0  0  0  0
    0.7500   -1.2990    0.0000 C   0  0  0  0  0  0  0  0  0  0  0  0
   -0.7500   -1.2990    0.0000 C   0  0  0  0  0  0  0  0  0  0  0  0
   -1.5000    0.0000    0.0000 C   0  0  0  0  0  0  0  0  0  0  0  0
   -0.7500    1.2990    0.0000 C   0  0  0  0  0  0  0  0  0  0  0  0
   -1.5000    2.5981    0.0000 C   0  0  0  0  0  0  0  0  0  0  0  0
   -3.0000    2.5981    0.0000 N   0  0  0  0  0  0  0  0  0  0  0  0
   -3.7500    3.8971    0.0000 C   0  0  0  0  0  0  0  0  0  0  0  0
   -3.0000    5.1962    0.0000 O   0  0  0  0  0  0  0  0  0  0  0  0
   -5.2500    3.8971    0.0000 N   0  0  0  0  0  0  0  0  0  0  0  0
   -6.0000    5.1962    0.0000 C   0  0  0  0  0  0  0  0  0  0  0  0
   -5.2500    6.4952    0.0000 C   0  0  0  0  0  0  0  0  0  0  0  0
   -6.0000    7.7942    0.0000 N   0  0  0  0  0  0  0  0  0  0  0  0
   -7.5000    7.7942    0.0000 C   0  0  0  0  0  0  0  0  0  0  0  0
   -8.2500    6.4952    0.0000 C   0  0  0  0  0  0  0  0  0  0  0  0
   -7.5000    5.1962    0.0000 N   0  0  0  0  0  0  0  0  0  0  0  0
   -0.7500    3.8971    0.0000 C   0  0  0  0  0  0  0  0  0  0  0  0
    0.7500    3.8971    0.0000 C   0  0  0  0  0  0  0  0  0  0  0  0
    1.5000    2.5981    0.0000 C   0  0  0  0  0  0  0  0  0  0  0  0
    0.7500    1.2990    0.0000 C   0  0  0  0  0  0  0  0  0  0  0  0
  1  2  1  0
  2  3  2  0
  3  4  1  0
  4  5  2  0
  5  6  1  0
  6  7  2  0
  7  8  1  0
  8  9  1  0
  9 10  2  0
  9 11  1  0
 11 12  1  0
 12 13  2  0
 13 14  1  0
 14 15  2  0
 15 16  1  0
 16 17  2  0
  7 18  1  0
 18 19  2  0
 19 20  1  0
 20 21  2  0
 21  2  1  0
 21  6  1  0
 17 12  1  0
M  END
>  <Molecule>  (629) 
CHEMBL1992371

>  <Standard Type>  (629) 
Ki

>  <Standard Relation>  (629) 
>

>  <Standard Value>  (629) 
5011.87

>  <Standard Units>  (629) 
nM

>  <pChEMBL Value>  (629) 
nan

>  <Comment>  (629) 
inactive

>  <Compound Key>  (629) 
SID103904871

>  <Assay>  (629) 
CHEMBL1963742

>  <Assay Description>  (629) 
PUBCHEM_BIOASSAY: Navigating the Kinome. (Class of assay: other) Panel member name: JAK3

>  <BAO Format>  (629) 
assay format

>  <Target>  (629) 
CHEMBL2148

>  <Target Pref. Name>  (629) 
Tyrosine-protein kinase JAK3

>  <Target Organism>  (629) 
Homo sapiens

>  <Target Type>  (629) 
SINGLE PROTEIN

>  <Document>  (629) 
CHEMBL1201862

>  <Source>  (629) 
PubChem BioAssays

>  <Max Phase>  (629) 
0

>  <#Ro5 Violations>  (629) 
0

>  <Molecular Weight>  (629) 
280.29

>  <Ligand Efficiency BEI>  (629) 
nan

>  <Ligand Efficiency LE>  (629) 
nan

>  <Ligand Efficiency LLE>  (629) 
nan

>  <Ligand Efficiency SEI>  (629) 
nan

>  <ALogP>  (629) 
2.98

>  <Assay Organism>  (629) 
nan

>  <Assay Tissue ChEMBL ID>  (629) 
nan

>  <Assay Tissue Name>  (629) 
nan

>  <Assay Cell Type>  (629) 
nan

>  <Assay Subcellular Fraction>  (629) 
nan

>  <Organism Tax ID>  (629) 
9606

>  <BAO Format ID>  (629) 
BAO_0000019

>  <Published Type>  (629) 
nan

>  <Published Relation>  (629) 
nan

>  <Published Value>  (629) 
nan

>  <Published Units>  (629) 
nan

>  <Canonical Smiles>  (629) 
Oc1cccc2c(NC(=O)Nc3cnccn3)cccc12

>  <Data Validity Comment>  (629) 
nan

>  <Document Journal>  (629) 
nan

>  <Document Year>  (629) 
nan

>  <SRC ID>  (629) 
7

>  <UO Units>  (629) 
UO_0000065

>  <Potential Duplicate>  (629) 
False

>  <Class>  (629) 
0

$$$$

     RDKit          2D

 24 27  0  0  0  0  0  0  0  0999 V2000
   -5.0487    4.2236    0.0000 N   0  0  0  0  0  0  0  0  0  0  0  0
   -5.3605    2.7564    0.0000 C   0  0  0  0  0  0  0  0  0  0  0  0
   -4.2458    1.7527    0.0000 C   0  0  0  0  0  0  0  0  0  0  0  0
   -4.5577    0.2855    0.0000 C   0  0  0  0  0  0  0  0  0  0  0  0
   -5.9843   -0.1781    0.0000 C   0  0  0  0  0  0  0  0  0  0  0  0
   -7.0990    0.8256    0.0000 C   0  0  0  0  0  0  0  0  0  0  0  0
   -6.7871    2.2929    0.0000 C   0  0  0  0  0  0  0  0  0  0  0  0
   -6.2961   -1.6453    0.0000 N   0  0  0  0  0  0  0  0  0  0  0  0
   -5.1814   -2.6490    0.0000 C   0  0  0  0  0  0  0  0  0  0  0  0
   -5.4933   -4.1162    0.0000 C   0  0  0  0  0  0  0  0  0  0  0  0
   -4.3786   -5.1199    0.0000 C   0  0  0  0  0  0  0  0  0  0  0  0
   -4.6904   -6.5871    0.0000 Cl  0  0  0  0  0  0  0  0  0  0  0  0
   -2.9520   -4.6564    0.0000 N   0  0  0  0  0  0  0  0  0  0  0  0
   -2.6401   -3.1891    0.0000 C   0  0  0  0  0  0  0  0  0  0  0  0
   -3.7548   -2.1855    0.0000 N   0  0  0  0  0  0  0  0  0  0  0  0
   -1.2135   -2.7256    0.0000 C   0  0  0  0  0  0  0  0  0  0  0  0
    0.0000   -3.6073    0.0000 C   0  0  0  0  0  0  0  0  0  0  0  0
    1.2135   -2.7256    0.0000 N   0  0  0  0  0  0  0  0  0  0  0  0
    0.7500   -1.2990    0.0000 C   0  0  0  0  0  0  0  0  0  0  0  0
    1.5000    0.0000    0.0000 N   0  0  0  0  0  0  0  0  0  0  0  0
    0.7500    1.2990    0.0000 C   0  0  0  0  0  0  0  0  0  0  0  0
   -0.7500    1.2990    0.0000 C   0  0  0  0  0  0  0  0  0  0  0  0
   -1.5000    0.0000    0.0000 C   0  0  0  0  0  0  0  0  0  0  0  0
   -0.7500   -1.2990    0.0000 C   0  0  0  0  0  0  0  0  0  0  0  0
  1  2  1  0
  2  3  1  0
  3  4  1  0
  4  5  1  0
  5  6  1  0
  6  7  1  0
  5  8  1  0
  8  9  1  0
  9 10  2  0
 10 11  1  0
 11 12  1  0
 11 13  2  0
 13 14  1  0
 14 15  2  0
 14 16  1  0
 16 17  2  0
 17 18  1  0
 18 19  1  0
 19 20  2  0
 20 21  1  0
 21 22  2  0
 22 23  1  0
 23 24  2  0
  7  2  1  0
 15  9  1  0
 24 16  1  0
 24 19  1  0
M  END
>  <Molecule>  (630) 
CHEMBL1983589

>  <Standard Type>  (630) 
Ki

>  <Standard Relation>  (630) 
=

>  <Standard Value>  (630) 
630.96

>  <Standard Units>  (630) 
nM

>  <pChEMBL Value>  (630) 
6.2

>  <Comment>  (630) 
active

>  <Compound Key>  (630) 
SID103904258

>  <Assay>  (630) 
CHEMBL1963742

>  <Assay Description>  (630) 
PUBCHEM_BIOASSAY: Navigating the Kinome. (Class of assay: other) Panel member name: JAK3

>  <BAO Format>  (630) 
assay format

>  <Target>  (630) 
CHEMBL2148

>  <Target Pref. Name>  (630) 
Tyrosine-protein kinase JAK3

>  <Target Organism>  (630) 
Homo sapiens

>  <Target Type>  (630) 
SINGLE PROTEIN

>  <Document>  (630) 
CHEMBL1201862

>  <Source>  (630) 
PubChem BioAssays

>  <Max Phase>  (630) 
0

>  <#Ro5 Violations>  (630) 
0

>  <Molecular Weight>  (630) 
342.83

>  <Ligand Efficiency BEI>  (630) 
nan

>  <Ligand Efficiency LE>  (630) 
nan

>  <Ligand Efficiency LLE>  (630) 
nan

>  <Ligand Efficiency SEI>  (630) 
nan

>  <ALogP>  (630) 
3.36

>  <Assay Organism>  (630) 
nan

>  <Assay Tissue ChEMBL ID>  (630) 
nan

>  <Assay Tissue Name>  (630) 
nan

>  <Assay Cell Type>  (630) 
nan

>  <Assay Subcellular Fraction>  (630) 
nan

>  <Organism Tax ID>  (630) 
9606

>  <BAO Format ID>  (630) 
BAO_0000019

>  <Published Type>  (630) 
nan

>  <Published Relation>  (630) 
nan

>  <Published Value>  (630) 
nan

>  <Published Units>  (630) 
nan

>  <Canonical Smiles>  (630) 
NC1CCC(CC1)Nc2cc(Cl)nc(n2)c3c[nH]c4ncccc34

>  <Data Validity Comment>  (630) 
nan

>  <Document Journal>  (630) 
nan

>  <Document Year>  (630) 
nan

>  <SRC ID>  (630) 
7

>  <UO Units>  (630) 
UO_0000065

>  <Potential Duplicate>  (630) 
False

>  <Class>  (630) 
1

$$$$

     RDKit          2D

 24 27  0  0  0  0  0  0  0  0999 V2000
   -3.5736    1.2902    0.0000 C   0  0  0  0  0  0  0  0  0  0  0  0
   -2.1470    1.7537    0.0000 C   0  0  0  0  0  0  0  0  0  0  0  0
   -1.8351    3.2209    0.0000 C   0  0  0  0  0  0  0  0  0  0  0  0
   -0.4086    3.6844    0.0000 C   0  0  0  0  0  0  0  0  0  0  0  0
   -0.0967    5.1517    0.0000 O   0  0  0  0  0  0  0  0  0  0  0  0
    0.7062    2.6807    0.0000 N   0  0  0  0  0  0  0  0  0  0  0  0
    0.3943    1.2135    0.0000 C   0  0  0  0  0  0  0  0  0  0  0  0
    1.2760    0.0000    0.0000 N   0  0  0  0  0  0  0  0  0  0  0  0
    0.3943   -1.2135    0.0000 N   0  0  0  0  0  0  0  0  0  0  0  0
   -1.0323   -0.7500    0.0000 C   0  0  0  0  0  0  0  0  0  0  0  0
   -2.2458   -1.6317    0.0000 C   0  0  0  0  0  0  0  0  0  0  0  0
   -3.6161   -1.0216    0.0000 C   0  0  0  0  0  0  0  0  0  0  0  0
   -4.8297   -1.9033    0.0000 C   0  0  0  0  0  0  0  0  0  0  0  0
   -4.6729   -3.3950    0.0000 C   0  0  0  0  0  0  0  0  0  0  0  0
   -3.3025   -4.0051    0.0000 C   0  0  0  0  0  0  0  0  0  0  0  0
   -2.0890   -3.1235    0.0000 C   0  0  0  0  0  0  0  0  0  0  0  0
   -3.1458   -5.4969    0.0000 C   0  0  0  0  0  0  0  0  0  0  0  0
   -4.3593   -6.3786    0.0000 C   0  0  0  0  0  0  0  0  0  0  0  0
   -4.2025   -7.8704    0.0000 C   0  0  0  0  0  0  0  0  0  0  0  0
   -2.8322   -8.4805    0.0000 C   0  0  0  0  0  0  0  0  0  0  0  0
   -2.6754   -9.9723    0.0000 Cl  0  0  0  0  0  0  0  0  0  0  0  0
   -1.6186   -7.5988    0.0000 C   0  0  0  0  0  0  0  0  0  0  0  0
   -1.7754   -6.1070    0.0000 C   0  0  0  0  0  0  0  0  0  0  0  0
   -1.0323    0.7500    0.0000 C   0  0  0  0  0  0  0  0  0  0  0  0
  1  2  1  0
  2  3  2  0
  3  4  1  0
  4  5  1  0
  4  6  2  0
  6  7  1  0
  7  8  1  0
  8  9  1  0
  9 10  2  0
 10 11  1  0
 11 12  2  0
 12 13  1  0
 13 14  2  0
 14 15  1  0
 15 16  2  0
 15 17  1  0
 17 18  2  0
 18 19  1  0
 19 20  2  0
 20 21  1  0
 20 22  1  0
 22 23  2  0
 10 24  1  0
 24  2  1  0
 24  7  2  0
 16 11  1  0
 23 17  1  0
M  END
>  <Molecule>  (631) 
CHEMBL1990590

>  <Standard Type>  (631) 
Ki

>  <Standard Relation>  (631) 
>

>  <Standard Value>  (631) 
5011.87

>  <Standard Units>  (631) 
nM

>  <pChEMBL Value>  (631) 
nan

>  <Comment>  (631) 
inactive

>  <Compound Key>  (631) 
SID103905003

>  <Assay>  (631) 
CHEMBL1963742

>  <Assay Description>  (631) 
PUBCHEM_BIOASSAY: Navigating the Kinome. (Class of assay: other) Panel member name: JAK3

>  <BAO Format>  (631) 
assay format

>  <Target>  (631) 
CHEMBL2148

>  <Target Pref. Name>  (631) 
Tyrosine-protein kinase JAK3

>  <Target Organism>  (631) 
Homo sapiens

>  <Target Type>  (631) 
SINGLE PROTEIN

>  <Document>  (631) 
CHEMBL1201862

>  <Source>  (631) 
PubChem BioAssays

>  <Max Phase>  (631) 
0

>  <#Ro5 Violations>  (631) 
0

>  <Molecular Weight>  (631) 
335.79

>  <Ligand Efficiency BEI>  (631) 
nan

>  <Ligand Efficiency LE>  (631) 
nan

>  <Ligand Efficiency LLE>  (631) 
nan

>  <Ligand Efficiency SEI>  (631) 
nan

>  <ALogP>  (631) 
4.96

>  <Assay Organism>  (631) 
nan

>  <Assay Tissue ChEMBL ID>  (631) 
nan

>  <Assay Tissue Name>  (631) 
nan

>  <Assay Cell Type>  (631) 
nan

>  <Assay Subcellular Fraction>  (631) 
nan

>  <Organism Tax ID>  (631) 
9606

>  <BAO Format ID>  (631) 
BAO_0000019

>  <Published Type>  (631) 
nan

>  <Published Relation>  (631) 
nan

>  <Published Value>  (631) 
nan

>  <Published Units>  (631) 
nan

>  <Canonical Smiles>  (631) 
Cc1cc(O)nc2[nH]nc(c3cccc(c3)c4ccc(Cl)cc4)c12

>  <Data Validity Comment>  (631) 
nan

>  <Document Journal>  (631) 
nan

>  <Document Year>  (631) 
nan

>  <SRC ID>  (631) 
7

>  <UO Units>  (631) 
UO_0000065

>  <Potential Duplicate>  (631) 
False

>  <Class>  (631) 
0

$$$$

     RDKit          2D

 24 26  0  0  0  0  0  0  0  0999 V2000
    4.5000    0.0000    0.0000 F   0  0  0  0  0  0  0  0  0  0  0  0
    3.0000    0.0000    0.0000 C   0  0  0  0  0  0  0  0  0  0  0  0
    3.0000   -1.5000    0.0000 F   0  0  0  0  0  0  0  0  0  0  0  0
    3.0000    1.5000    0.0000 F   0  0  0  0  0  0  0  0  0  0  0  0
    1.5000    0.0000    0.0000 C   0  0  0  0  0  0  0  0  0  0  0  0
    0.7500   -1.2990    0.0000 C   0  0  0  0  0  0  0  0  0  0  0  0
   -0.7500   -1.2990    0.0000 C   0  0  0  0  0  0  0  0  0  0  0  0
   -1.5000    0.0000    0.0000 C   0  0  0  0  0  0  0  0  0  0  0  0
   -3.0000    0.0000    0.0000 N   0  0  0  0  0  0  0  0  0  0  0  0
   -3.7500    1.2990    0.0000 C   0  0  0  0  0  0  0  0  0  0  0  0
   -3.0000    2.5981    0.0000 C   0  0  0  0  0  0  0  0  0  0  0  0
   -1.5000    2.5981    0.0000 C   0  0  0  0  0  0  0  0  0  0  0  0
   -0.7500    3.8971    0.0000 N   0  0  0  0  0  0  0  0  0  0  0  0
   -1.5000    5.1962    0.0000 C   0  0  0  0  0  0  0  0  0  0  0  0
   -3.0000    5.1962    0.0000 O   0  0  0  0  0  0  0  0  0  0  0  0
   -0.7500    6.4952    0.0000 N   0  0  0  0  0  0  0  0  0  0  0  0
   -1.5000    7.7942    0.0000 C   0  0  0  0  0  0  0  0  0  0  0  0
   -0.7500    9.0933    0.0000 C   0  0  0  0  0  0  0  0  0  0  0  0
   -1.5000   10.3923    0.0000 N   0  0  0  0  0  0  0  0  0  0  0  0
   -3.0000   10.3923    0.0000 C   0  0  0  0  0  0  0  0  0  0  0  0
   -3.7500    9.0933    0.0000 C   0  0  0  0  0  0  0  0  0  0  0  0
   -3.0000    7.7942    0.0000 N   0  0  0  0  0  0  0  0  0  0  0  0
   -0.7500    1.2990    0.0000 C   0  0  0  0  0  0  0  0  0  0  0  0
    0.7500    1.2990    0.0000 C   0  0  0  0  0  0  0  0  0  0  0  0
  1  2  1  0
  2  3  1  0
  2  4  1  0
  2  5  1  0
  5  6  2  0
  6  7  1  0
  7  8  2  0
  8  9  1  0
  9 10  2  0
 10 11  1  0
 11 12  2  0
 12 13  1  0
 13 14  1  0
 14 15  2  0
 14 16  1  0
 16 17  1  0
 17 18  2  0
 18 19  1  0
 19 20  2  0
 20 21  1  0
 21 22  2  0
 12 23  1  0
 23 24  2  0
 24  5  1  0
 23  8  1  0
 22 17  1  0
M  END
>  <Molecule>  (632) 
CHEMBL1976455

>  <Standard Type>  (632) 
Ki

>  <Standard Relation>  (632) 
>

>  <Standard Value>  (632) 
1584.89

>  <Standard Units>  (632) 
nM

>  <pChEMBL Value>  (632) 
nan

>  <Comment>  (632) 
inactive

>  <Compound Key>  (632) 
SID103904884

>  <Assay>  (632) 
CHEMBL1963742

>  <Assay Description>  (632) 
PUBCHEM_BIOASSAY: Navigating the Kinome. (Class of assay: other) Panel member name: JAK3

>  <BAO Format>  (632) 
assay format

>  <Target>  (632) 
CHEMBL2148

>  <Target Pref. Name>  (632) 
Tyrosine-protein kinase JAK3

>  <Target Organism>  (632) 
Homo sapiens

>  <Target Type>  (632) 
SINGLE PROTEIN

>  <Document>  (632) 
CHEMBL1201862

>  <Source>  (632) 
PubChem BioAssays

>  <Max Phase>  (632) 
0

>  <#Ro5 Violations>  (632) 
0

>  <Molecular Weight>  (632) 
333.27

>  <Ligand Efficiency BEI>  (632) 
nan

>  <Ligand Efficiency LE>  (632) 
nan

>  <Ligand Efficiency LLE>  (632) 
nan

>  <Ligand Efficiency SEI>  (632) 
nan

>  <ALogP>  (632) 
3.69

>  <Assay Organism>  (632) 
nan

>  <Assay Tissue ChEMBL ID>  (632) 
nan

>  <Assay Tissue Name>  (632) 
nan

>  <Assay Cell Type>  (632) 
nan

>  <Assay Subcellular Fraction>  (632) 
nan

>  <Organism Tax ID>  (632) 
9606

>  <BAO Format ID>  (632) 
BAO_0000019

>  <Published Type>  (632) 
nan

>  <Published Relation>  (632) 
nan

>  <Published Value>  (632) 
nan

>  <Published Units>  (632) 
nan

>  <Canonical Smiles>  (632) 
FC(F)(F)c1ccc2nccc(NC(=O)Nc3cnccn3)c2c1

>  <Data Validity Comment>  (632) 
nan

>  <Document Journal>  (632) 
nan

>  <Document Year>  (632) 
nan

>  <SRC ID>  (632) 
7

>  <UO Units>  (632) 
UO_0000065

>  <Potential Duplicate>  (632) 
False

>  <Class>  (632) 
0

$$$$

     RDKit          2D

 27 29  0  0  0  0  0  0  0  0999 V2000
    3.0000    0.0000    0.0000 C   0  0  0  0  0  0  0  0  0  0  0  0
    1.5000    0.0000    0.0000 C   0  0  0  0  0  0  0  0  0  0  0  0
    0.7500   -1.2990    0.0000 C   0  0  0  0  0  0  0  0  0  0  0  0
   -0.7500   -1.2990    0.0000 C   0  0  0  0  0  0  0  0  0  0  0  0
   -1.5000   -2.5981    0.0000 O   0  0  0  0  0  0  0  0  0  0  0  0
   -3.0000   -2.5981    0.0000 C   0  0  0  0  0  0  0  0  0  0  0  0
   -3.7500   -3.8971    0.0000 C   0  0  0  0  0  0  0  0  0  0  0  0
   -5.2500   -3.8971    0.0000 C   0  0  0  0  0  0  0  0  0  0  0  0
   -6.0000   -5.1962    0.0000 C   0  0  0  0  0  0  0  0  0  0  0  0
   -5.2500   -6.4952    0.0000 C   0  0  0  0  0  0  0  0  0  0  0  0
   -3.7500   -6.4952    0.0000 C   0  0  0  0  0  0  0  0  0  0  0  0
   -3.0000   -5.1962    0.0000 C   0  0  0  0  0  0  0  0  0  0  0  0
   -3.0000   -7.7942    0.0000 C   0  0  0  0  0  0  0  0  0  0  0  0
   -2.2500   -9.0933    0.0000 F   0  0  0  0  0  0  0  0  0  0  0  0
   -4.2990   -8.5442    0.0000 F   0  0  0  0  0  0  0  0  0  0  0  0
   -1.7010   -7.0442    0.0000 F   0  0  0  0  0  0  0  0  0  0  0  0
   -1.5000    0.0000    0.0000 C   0  0  0  0  0  0  0  0  0  0  0  0
   -0.7500    1.2990    0.0000 C   0  0  0  0  0  0  0  0  0  0  0  0
    0.7500    1.2990    0.0000 C   0  0  0  0  0  0  0  0  0  0  0  0
    1.5000    2.5981    0.0000 C   0  0  0  0  0  0  0  0  0  0  0  0
    0.7500    3.8971    0.0000 N   0  0  0  0  0  0  0  0  0  0  0  0
    1.1382    5.3460    0.0000 C   0  0  0  0  0  0  0  0  0  0  0  0
   -0.3107    5.7342    0.0000 C   0  0  0  0  0  0  0  0  0  0  0  0
   -0.6989    4.2853    0.0000 C   0  0  0  0  0  0  0  0  0  0  0  0
   -1.0607    7.0333    0.0000 C   0  0  0  0  0  0  0  0  0  0  0  0
   -2.5607    7.0333    0.0000 O   0  0  0  0  0  0  0  0  0  0  0  0
   -0.3107    8.3323    0.0000 O   0  0  0  0  0  0  0  0  0  0  0  0
  1  2  1  0
  2  3  2  0
  3  4  1  0
  4  5  1  0
  5  6  1  0
  6  7  1  0
  7  8  2  0
  8  9  1  0
  9 10  2  0
 10 11  1  0
 11 12  2  0
 11 13  1  0
 13 14  1  0
 13 15  1  0
 13 16  1  0
  4 17  2  0
 17 18  1  0
 18 19  2  0
 19 20  1  0
 20 21  1  0
 21 22  1  0
 22 23  1  0
 23 24  1  0
 23 25  1  0
 25 26  2  0
 25 27  1  0
 19  2  1  0
 12  7  1  0
 24 21  1  0
M  END
>  <Molecule>  (633) 
CHEMBL1966501

>  <Standard Type>  (633) 
Ki

>  <Standard Relation>  (633) 
=

>  <Standard Value>  (633) 
2511.89

>  <Standard Units>  (633) 
nM

>  <pChEMBL Value>  (633) 
5.6

>  <Comment>  (633) 
active

>  <Compound Key>  (633) 
SID103904929

>  <Assay>  (633) 
CHEMBL1963742

>  <Assay Description>  (633) 
PUBCHEM_BIOASSAY: Navigating the Kinome. (Class of assay: other) Panel member name: JAK3

>  <BAO Format>  (633) 
assay format

>  <Target>  (633) 
CHEMBL2148

>  <Target Pref. Name>  (633) 
Tyrosine-protein kinase JAK3

>  <Target Organism>  (633) 
Homo sapiens

>  <Target Type>  (633) 
SINGLE PROTEIN

>  <Document>  (633) 
CHEMBL1201862

>  <Source>  (633) 
PubChem BioAssays

>  <Max Phase>  (633) 
0

>  <#Ro5 Violations>  (633) 
0

>  <Molecular Weight>  (633) 
379.38

>  <Ligand Efficiency BEI>  (633) 
nan

>  <Ligand Efficiency LE>  (633) 
nan

>  <Ligand Efficiency LLE>  (633) 
nan

>  <Ligand Efficiency SEI>  (633) 
nan

>  <ALogP>  (633) 
4.11

>  <Assay Organism>  (633) 
nan

>  <Assay Tissue ChEMBL ID>  (633) 
nan

>  <Assay Tissue Name>  (633) 
nan

>  <Assay Cell Type>  (633) 
nan

>  <Assay Subcellular Fraction>  (633) 
nan

>  <Organism Tax ID>  (633) 
9606

>  <BAO Format ID>  (633) 
BAO_0000019

>  <Published Type>  (633) 
nan

>  <Published Relation>  (633) 
nan

>  <Published Value>  (633) 
nan

>  <Published Units>  (633) 
nan

>  <Canonical Smiles>  (633) 
Cc1cc(OCc2cccc(c2)C(F)(F)F)ccc1CN3CC(C3)C(=O)O

>  <Data Validity Comment>  (633) 
nan

>  <Document Journal>  (633) 
nan

>  <Document Year>  (633) 
nan

>  <SRC ID>  (633) 
7

>  <UO Units>  (633) 
UO_0000065

>  <Potential Duplicate>  (633) 
False

>  <Class>  (633) 
1

$$$$

     RDKit          2D

 11 12  0  0  0  0  0  0  0  0999 V2000
   -2.6401   -3.1891    0.0000 N   0  0  0  0  0  0  0  0  0  0  0  0
   -1.2135   -2.7256    0.0000 C   0  0  0  0  0  0  0  0  0  0  0  0
   -0.0000   -3.6073    0.0000 N   0  0  0  0  0  0  0  0  0  0  0  0
    1.2135   -2.7256    0.0000 N   0  0  0  0  0  0  0  0  0  0  0  0
    0.7500   -1.2990    0.0000 C   0  0  0  0  0  0  0  0  0  0  0  0
    1.5000    0.0000    0.0000 C   0  0  0  0  0  0  0  0  0  0  0  0
    0.7500    1.2990    0.0000 N   0  0  0  0  0  0  0  0  0  0  0  0
   -0.7500    1.2990    0.0000 C   0  0  0  0  0  0  0  0  0  0  0  0
   -1.5000    0.0000    0.0000 C   0  0  0  0  0  0  0  0  0  0  0  0
   -3.0000    0.0000    0.0000 Cl  0  0  0  0  0  0  0  0  0  0  0  0
   -0.7500   -1.2990    0.0000 N   0  0  0  0  0  0  0  0  0  0  0  0
  1  2  1  0
  2  3  2  0
  3  4  1  0
  4  5  2  0
  5  6  1  0
  6  7  2  0
  7  8  1  0
  8  9  2  0
  9 10  1  0
  9 11  1  0
 11  2  1  0
 11  5  1  0
M  END
>  <Molecule>  (634) 
CHEMBL1968130

>  <Standard Type>  (634) 
Ki

>  <Standard Relation>  (634) 
=

>  <Standard Value>  (634) 
19952.62

>  <Standard Units>  (634) 
nM

>  <pChEMBL Value>  (634) 
4.7

>  <Comment>  (634) 
active

>  <Compound Key>  (634) 
SID103905652

>  <Assay>  (634) 
CHEMBL1963742

>  <Assay Description>  (634) 
PUBCHEM_BIOASSAY: Navigating the Kinome. (Class of assay: other) Panel member name: JAK3

>  <BAO Format>  (634) 
assay format

>  <Target>  (634) 
CHEMBL2148

>  <Target Pref. Name>  (634) 
Tyrosine-protein kinase JAK3

>  <Target Organism>  (634) 
Homo sapiens

>  <Target Type>  (634) 
SINGLE PROTEIN

>  <Document>  (634) 
CHEMBL1201862

>  <Source>  (634) 
PubChem BioAssays

>  <Max Phase>  (634) 
0

>  <#Ro5 Violations>  (634) 
0

>  <Molecular Weight>  (634) 
169.58

>  <Ligand Efficiency BEI>  (634) 
nan

>  <Ligand Efficiency LE>  (634) 
nan

>  <Ligand Efficiency LLE>  (634) 
nan

>  <Ligand Efficiency SEI>  (634) 
nan

>  <ALogP>  (634) 
0.36

>  <Assay Organism>  (634) 
nan

>  <Assay Tissue ChEMBL ID>  (634) 
nan

>  <Assay Tissue Name>  (634) 
nan

>  <Assay Cell Type>  (634) 
nan

>  <Assay Subcellular Fraction>  (634) 
nan

>  <Organism Tax ID>  (634) 
9606

>  <BAO Format ID>  (634) 
BAO_0000019

>  <Published Type>  (634) 
nan

>  <Published Relation>  (634) 
nan

>  <Published Value>  (634) 
nan

>  <Published Units>  (634) 
nan

>  <Canonical Smiles>  (634) 
Nc1nnc2cncc(Cl)n12

>  <Data Validity Comment>  (634) 
nan

>  <Document Journal>  (634) 
nan

>  <Document Year>  (634) 
nan

>  <SRC ID>  (634) 
7

>  <UO Units>  (634) 
UO_0000065

>  <Potential Duplicate>  (634) 
False

>  <Class>  (634) 
1

$$$$

     RDKit          2D

 21 24  0  0  0  0  0  0  0  0999 V2000
   -3.7500   -1.2990    0.0000 O   0  0  0  0  0  0  0  0  0  0  0  0
   -3.0000   -2.5981    0.0000 C   0  0  0  0  0  0  0  0  0  0  0  0
   -3.7500   -3.8971    0.0000 O   0  0  0  0  0  0  0  0  0  0  0  0
   -1.5000   -2.5981    0.0000 C   0  0  0  0  0  0  0  0  0  0  0  0
   -0.7500   -3.8971    0.0000 C   0  0  0  0  0  0  0  0  0  0  0  0
   -1.2135   -5.3237    0.0000 C   0  0  0  0  0  0  0  0  0  0  0  0
   -0.0000   -6.2054    0.0000 C   0  0  0  0  0  0  0  0  0  0  0  0
    1.2135   -5.3237    0.0000 C   0  0  0  0  0  0  0  0  0  0  0  0
    2.6401   -5.7872    0.0000 C   0  0  0  0  0  0  0  0  0  0  0  0
    3.8536   -4.9055    0.0000 C   0  0  0  0  0  0  0  0  0  0  0  0
    5.0672   -5.7872    0.0000 C   0  0  0  0  0  0  0  0  0  0  0  0
    4.6036   -7.2138    0.0000 C   0  0  0  0  0  0  0  0  0  0  0  0
    3.1036   -7.2138    0.0000 C   0  0  0  0  0  0  0  0  0  0  0  0
    0.7500   -3.8971    0.0000 C   0  0  0  0  0  0  0  0  0  0  0  0
    1.5000   -2.5981    0.0000 N   0  0  0  0  0  0  0  0  0  0  0  0
    0.7500   -1.2990    0.0000 C   0  0  0  0  0  0  0  0  0  0  0  0
    1.5000    0.0000    0.0000 C   0  0  0  0  0  0  0  0  0  0  0  0
    0.7500    1.2990    0.0000 C   0  0  0  0  0  0  0  0  0  0  0  0
   -0.7500    1.2990    0.0000 C   0  0  0  0  0  0  0  0  0  0  0  0
   -1.5000    0.0000    0.0000 C   0  0  0  0  0  0  0  0  0  0  0  0
   -0.7500   -1.2990    0.0000 C   0  0  0  0  0  0  0  0  0  0  0  0
  1  2  1  0
  2  3  2  0
  2  4  1  0
  4  5  2  0
  5  6  1  0
  6  7  1  0
  7  8  1  0
  8  9  2  3
  9 10  1  0
 10 11  1  0
 11 12  1  0
 12 13  1  0
  8 14  1  0
 14 15  2  0
 15 16  1  0
 16 17  2  0
 17 18  1  0
 18 19  2  0
 19 20  1  0
 20 21  2  0
 21  4  1  0
 14  5  1  0
 13  9  1  0
 21 16  1  0
M  END
>  <Molecule>  (635) 
CHEMBL1996831

>  <Standard Type>  (635) 
Ki

>  <Standard Relation>  (635) 
>

>  <Standard Value>  (635) 
1584.89

>  <Standard Units>  (635) 
nM

>  <pChEMBL Value>  (635) 
nan

>  <Comment>  (635) 
inactive

>  <Compound Key>  (635) 
SID103904809

>  <Assay>  (635) 
CHEMBL1963742

>  <Assay Description>  (635) 
PUBCHEM_BIOASSAY: Navigating the Kinome. (Class of assay: other) Panel member name: JAK3

>  <BAO Format>  (635) 
assay format

>  <Target>  (635) 
CHEMBL2148

>  <Target Pref. Name>  (635) 
Tyrosine-protein kinase JAK3

>  <Target Organism>  (635) 
Homo sapiens

>  <Target Type>  (635) 
SINGLE PROTEIN

>  <Document>  (635) 
CHEMBL1201862

>  <Source>  (635) 
PubChem BioAssays

>  <Max Phase>  (635) 
0

>  <#Ro5 Violations>  (635) 
0

>  <Molecular Weight>  (635) 
279.34

>  <Ligand Efficiency BEI>  (635) 
nan

>  <Ligand Efficiency LE>  (635) 
nan

>  <Ligand Efficiency LLE>  (635) 
nan

>  <Ligand Efficiency SEI>  (635) 
nan

>  <ALogP>  (635) 
4.21

>  <Assay Organism>  (635) 
nan

>  <Assay Tissue ChEMBL ID>  (635) 
nan

>  <Assay Tissue Name>  (635) 
nan

>  <Assay Cell Type>  (635) 
nan

>  <Assay Subcellular Fraction>  (635) 
nan

>  <Organism Tax ID>  (635) 
9606

>  <BAO Format ID>  (635) 
BAO_0000019

>  <Published Type>  (635) 
nan

>  <Published Relation>  (635) 
nan

>  <Published Value>  (635) 
nan

>  <Published Units>  (635) 
nan

>  <Canonical Smiles>  (635) 
OC(=O)c1c2CCC(=C3CCCC3)c2nc4ccccc14

>  <Data Validity Comment>  (635) 
nan

>  <Document Journal>  (635) 
nan

>  <Document Year>  (635) 
nan

>  <SRC ID>  (635) 
7

>  <UO Units>  (635) 
UO_0000065

>  <Potential Duplicate>  (635) 
False

>  <Class>  (635) 
0

$$$$

     RDKit          2D

 31 34  0  0  0  0  0  0  0  0999 V2000
    8.0406   12.1352    0.0000 C   0  0  0  0  0  0  0  0  0  0  0  0
    7.5771   10.7086    0.0000 C   0  0  0  0  0  0  0  0  0  0  0  0
    8.5808    9.5939    0.0000 C   0  0  0  0  0  0  0  0  0  0  0  0
    8.1173    8.1673    0.0000 C   0  0  0  0  0  0  0  0  0  0  0  0
    6.6501    7.8555    0.0000 C   0  0  0  0  0  0  0  0  0  0  0  0
    5.6464    8.9702    0.0000 C   0  0  0  0  0  0  0  0  0  0  0  0
    4.1791    8.6583    0.0000 N   0  0  0  0  0  0  0  0  0  0  0  0
    3.7156    7.2317    0.0000 C   0  0  0  0  0  0  0  0  0  0  0  0
    4.7193    6.1170    0.0000 O   0  0  0  0  0  0  0  0  0  0  0  0
    2.2484    6.9199    0.0000 N   0  0  0  0  0  0  0  0  0  0  0  0
    1.7849    5.4933    0.0000 C   0  0  0  0  0  0  0  0  0  0  0  0
    0.3177    5.1814    0.0000 C   0  0  0  0  0  0  0  0  0  0  0  0
   -0.1459    3.7548    0.0000 C   0  0  0  0  0  0  0  0  0  0  0  0
    0.8578    2.6401    0.0000 C   0  0  0  0  0  0  0  0  0  0  0  0
    2.3250    2.9520    0.0000 C   0  0  0  0  0  0  0  0  0  0  0  0
    2.7886    4.3786    0.0000 C   0  0  0  0  0  0  0  0  0  0  0  0
    0.3943    1.2135    0.0000 C   0  0  0  0  0  0  0  0  0  0  0  0
    1.2760    0.0000    0.0000 C   0  0  0  0  0  0  0  0  0  0  0  0
    0.3943   -1.2135    0.0000 S   0  0  0  0  0  0  0  0  0  0  0  0
   -1.0323   -0.7500    0.0000 C   0  0  0  0  0  0  0  0  0  0  0  0
   -2.3313   -1.5000    0.0000 C   0  0  0  0  0  0  0  0  0  0  0  0
   -3.6304   -0.7500    0.0000 C   0  0  0  0  0  0  0  0  0  0  0  0
   -3.6304    0.7500    0.0000 N   0  0  0  0  0  0  0  0  0  0  0  0
   -2.3313    1.5000    0.0000 C   0  0  0  0  0  0  0  0  0  0  0  0
   -2.3313    3.0000    0.0000 N   0  0  0  0  0  0  0  0  0  0  0  0
   -1.0323    0.7500    0.0000 C   0  0  0  0  0  0  0  0  0  0  0  0
   -2.3313   -3.0000    0.0000 C   0  0  0  0  0  0  0  0  0  0  0  0
   -2.3313   -4.5000    0.0000 C   0  0  0  0  0  0  0  0  0  0  0  0
   -2.3313   -6.0000    0.0000 C   0  0  0  0  0  0  0  0  0  0  0  0
   -3.6304   -6.7500    0.0000 N   0  0  0  0  0  0  0  0  0  0  0  0
    6.1099   10.3968    0.0000 C   0  0  0  0  0  0  0  0  0  0  0  0
  1  2  1  0
  2  3  2  0
  3  4  1  0
  4  5  2  0
  5  6  1  0
  6  7  1  0
  7  8  1  0
  8  9  2  0
  8 10  1  0
 10 11  1  0
 11 12  2  0
 12 13  1  0
 13 14  2  0
 14 15  1  0
 15 16  2  0
 14 17  1  0
 17 18  2  0
 18 19  1  0
 19 20  1  0
 20 21  2  0
 21 22  1  0
 22 23  2  0
 23 24  1  0
 24 25  1  0
 24 26  2  0
 21 27  1  0
 27 28  3  0
 28 29  1  0
 29 30  1  0
  6 31  2  0
 31  2  1  0
 16 11  1  0
 26 17  1  0
 26 20  1  0
M  END
>  <Molecule>  (636) 
CHEMBL1965988

>  <Standard Type>  (636) 
Ki

>  <Standard Relation>  (636) 
=

>  <Standard Value>  (636) 
630.96

>  <Standard Units>  (636) 
nM

>  <pChEMBL Value>  (636) 
6.2

>  <Comment>  (636) 
active

>  <Compound Key>  (636) 
SID103904300

>  <Assay>  (636) 
CHEMBL1963742

>  <Assay Description>  (636) 
PUBCHEM_BIOASSAY: Navigating the Kinome. (Class of assay: other) Panel member name: JAK3

>  <BAO Format>  (636) 
assay format

>  <Target>  (636) 
CHEMBL2148

>  <Target Pref. Name>  (636) 
Tyrosine-protein kinase JAK3

>  <Target Organism>  (636) 
Homo sapiens

>  <Target Type>  (636) 
SINGLE PROTEIN

>  <Document>  (636) 
CHEMBL1201862

>  <Source>  (636) 
PubChem BioAssays

>  <Max Phase>  (636) 
0

>  <#Ro5 Violations>  (636) 
0

>  <Molecular Weight>  (636) 
427.53

>  <Ligand Efficiency BEI>  (636) 
nan

>  <Ligand Efficiency LE>  (636) 
nan

>  <Ligand Efficiency LLE>  (636) 
nan

>  <Ligand Efficiency SEI>  (636) 
nan

>  <ALogP>  (636) 
4.81

>  <Assay Organism>  (636) 
nan

>  <Assay Tissue ChEMBL ID>  (636) 
nan

>  <Assay Tissue Name>  (636) 
nan

>  <Assay Cell Type>  (636) 
nan

>  <Assay Subcellular Fraction>  (636) 
nan

>  <Organism Tax ID>  (636) 
9606

>  <BAO Format ID>  (636) 
BAO_0000019

>  <Published Type>  (636) 
nan

>  <Published Relation>  (636) 
nan

>  <Published Value>  (636) 
nan

>  <Published Units>  (636) 
nan

>  <Canonical Smiles>  (636) 
Cc1cccc(NC(=O)Nc2ccc(cc2)c3csc4c(cnc(N)c34)C#CCN)c1

>  <Data Validity Comment>  (636) 
nan

>  <Document Journal>  (636) 
nan

>  <Document Year>  (636) 
nan

>  <SRC ID>  (636) 
7

>  <UO Units>  (636) 
UO_0000065

>  <Potential Duplicate>  (636) 
False

>  <Class>  (636) 
1

$$$$

     RDKit          2D

 32 36  0  0  0  0  0  0  0  0999 V2000
   -6.4289   -8.5179    0.0000 F   0  0  0  0  0  0  0  0  0  0  0  0
   -6.1170   -7.0506    0.0000 C   0  0  0  0  0  0  0  0  0  0  0  0
   -7.2317   -6.0469    0.0000 C   0  0  0  0  0  0  0  0  0  0  0  0
   -6.9199   -4.5797    0.0000 C   0  0  0  0  0  0  0  0  0  0  0  0
   -5.4933   -4.1162    0.0000 C   0  0  0  0  0  0  0  0  0  0  0  0
   -5.1814   -2.6490    0.0000 F   0  0  0  0  0  0  0  0  0  0  0  0
   -4.3786   -5.1199    0.0000 C   0  0  0  0  0  0  0  0  0  0  0  0
   -4.6904   -6.5871    0.0000 C   0  0  0  0  0  0  0  0  0  0  0  0
   -2.9520   -4.6564    0.0000 C   0  0  0  0  0  0  0  0  0  0  0  0
   -1.8373   -5.6601    0.0000 O   0  0  0  0  0  0  0  0  0  0  0  0
   -2.6401   -3.1891    0.0000 N   0  0  0  0  0  0  0  0  0  0  0  0
   -1.2135   -2.7256    0.0000 C   0  0  0  0  0  0  0  0  0  0  0  0
    0.0000   -3.6073    0.0000 N   0  0  0  0  0  0  0  0  0  0  0  0
    1.2135   -2.7256    0.0000 N   0  0  0  0  0  0  0  0  0  0  0  0
    0.7500   -1.2990    0.0000 C   0  0  0  0  0  0  0  0  0  0  0  0
    1.5000    0.0000    0.0000 C   0  0  0  0  0  0  0  0  0  0  0  0
    0.7500    1.2990    0.0000 C   0  0  0  0  0  0  0  0  0  0  0  0
   -0.7500    1.2990    0.0000 C   0  0  0  0  0  0  0  0  0  0  0  0
   -1.5000    0.0000    0.0000 C   0  0  0  0  0  0  0  0  0  0  0  0
   -0.7500   -1.2990    0.0000 C   0  0  0  0  0  0  0  0  0  0  0  0
   -1.5000    2.5981    0.0000 C   0  0  0  0  0  0  0  0  0  0  0  0
   -2.9918    2.7549    0.0000 C   0  0  0  0  0  0  0  0  0  0  0  0
   -3.3037    4.2221    0.0000 N   0  0  0  0  0  0  0  0  0  0  0  0
   -4.6740    4.8322    0.0000 C   0  0  0  0  0  0  0  0  0  0  0  0
   -4.8308    6.3240    0.0000 C   0  0  0  0  0  0  0  0  0  0  0  0
   -3.6172    7.2057    0.0000 C   0  0  0  0  0  0  0  0  0  0  0  0
   -3.7740    8.6974    0.0000 C   0  0  0  0  0  0  0  0  0  0  0  0
   -5.1443    9.3075    0.0000 C   0  0  0  0  0  0  0  0  0  0  0  0
   -6.3579    8.4259    0.0000 C   0  0  0  0  0  0  0  0  0  0  0  0
   -6.2011    6.9341    0.0000 C   0  0  0  0  0  0  0  0  0  0  0  0
   -2.0046    4.9721    0.0000 N   0  0  0  0  0  0  0  0  0  0  0  0
   -0.8899    3.9684    0.0000 N   0  0  0  0  0  0  0  0  0  0  0  0
  1  2  1  0
  2  3  2  0
  3  4  1  0
  4  5  2  0
  5  6  1  0
  5  7  1  0
  7  8  2  0
  7  9  1  0
  9 10  2  0
  9 11  1  0
 11 12  1  0
 12 13  2  0
 13 14  1  0
 14 15  1  0
 15 16  2  0
 16 17  1  0
 17 18  2  0
 18 19  1  0
 19 20  2  0
 18 21  1  0
 21 22  2  0
 22 23  1  0
 23 24  1  0
 24 25  1  0
 25 26  2  0
 26 27  1  0
 27 28  2  0
 28 29  1  0
 29 30  2  0
 23 31  1  0
 31 32  2  0
  8  2  1  0
 20 12  1  0
 20 15  1  0
 32 21  1  0
 30 25  1  0
M  END
>  <Molecule>  (637) 
CHEMBL1995811

>  <Standard Type>  (637) 
Ki

>  <Standard Relation>  (637) 
>

>  <Standard Value>  (637) 
5011.87

>  <Standard Units>  (637) 
nM

>  <pChEMBL Value>  (637) 
nan

>  <Comment>  (637) 
inactive

>  <Compound Key>  (637) 
SID103904507

>  <Assay>  (637) 
CHEMBL1963742

>  <Assay Description>  (637) 
PUBCHEM_BIOASSAY: Navigating the Kinome. (Class of assay: other) Panel member name: JAK3

>  <BAO Format>  (637) 
assay format

>  <Target>  (637) 
CHEMBL2148

>  <Target Pref. Name>  (637) 
Tyrosine-protein kinase JAK3

>  <Target Organism>  (637) 
Homo sapiens

>  <Target Type>  (637) 
SINGLE PROTEIN

>  <Document>  (637) 
CHEMBL1201862

>  <Source>  (637) 
PubChem BioAssays

>  <Max Phase>  (637) 
0

>  <#Ro5 Violations>  (637) 
0

>  <Molecular Weight>  (637) 
430.42

>  <Ligand Efficiency BEI>  (637) 
nan

>  <Ligand Efficiency LE>  (637) 
nan

>  <Ligand Efficiency LLE>  (637) 
nan

>  <Ligand Efficiency SEI>  (637) 
nan

>  <ALogP>  (637) 
4.4

>  <Assay Organism>  (637) 
nan

>  <Assay Tissue ChEMBL ID>  (637) 
nan

>  <Assay Tissue Name>  (637) 
nan

>  <Assay Cell Type>  (637) 
nan

>  <Assay Subcellular Fraction>  (637) 
nan

>  <Organism Tax ID>  (637) 
9606

>  <BAO Format ID>  (637) 
BAO_0000019

>  <Published Type>  (637) 
nan

>  <Published Relation>  (637) 
nan

>  <Published Value>  (637) 
nan

>  <Published Units>  (637) 
nan

>  <Canonical Smiles>  (637) 
Fc1ccc(F)c(c1)C(=O)Nc2n[nH]c3ccc(cc23)c4cn(Cc5ccccc5)nn4

>  <Data Validity Comment>  (637) 
nan

>  <Document Journal>  (637) 
nan

>  <Document Year>  (637) 
nan

>  <SRC ID>  (637) 
7

>  <UO Units>  (637) 
UO_0000065

>  <Potential Duplicate>  (637) 
False

>  <Class>  (637) 
0

$$$$

     RDKit          2D

 20 22  0  0  0  0  0  0  0  0999 V2000
   -3.7500   -3.8971    0.0000 N   0  0  0  0  0  0  0  0  0  0  0  0
   -3.0000   -2.5981    0.0000 C   0  0  0  0  0  0  0  0  0  0  0  0
   -3.7500   -1.2990    0.0000 O   0  0  0  0  0  0  0  0  0  0  0  0
   -1.5000   -2.5981    0.0000 C   0  0  0  0  0  0  0  0  0  0  0  0
   -0.7500   -3.8971    0.0000 C   0  0  0  0  0  0  0  0  0  0  0  0
    0.7500   -3.8971    0.0000 C   0  0  0  0  0  0  0  0  0  0  0  0
    1.5000   -2.5981    0.0000 C   0  0  0  0  0  0  0  0  0  0  0  0
    0.7500   -1.2990    0.0000 C   0  0  0  0  0  0  0  0  0  0  0  0
    1.5000    0.0000    0.0000 C   0  0  0  0  0  0  0  0  0  0  0  0
    0.7500    1.2990    0.0000 C   0  0  0  0  0  0  0  0  0  0  0  0
   -0.7500    1.2990    0.0000 C   0  0  0  0  0  0  0  0  0  0  0  0
   -1.5000    0.0000    0.0000 N   0  0  0  0  0  0  0  0  0  0  0  0
   -0.7500   -1.2990    0.0000 C   0  0  0  0  0  0  0  0  0  0  0  0
    1.5000   -5.1962    0.0000 C   0  0  0  0  0  0  0  0  0  0  0  0
    0.7500   -6.4952    0.0000 C   0  0  0  0  0  0  0  0  0  0  0  0
    1.5000   -7.7942    0.0000 C   0  0  0  0  0  0  0  0  0  0  0  0
    3.0000   -7.7942    0.0000 C   0  0  0  0  0  0  0  0  0  0  0  0
    3.7500   -6.4952    0.0000 C   0  0  0  0  0  0  0  0  0  0  0  0
    5.2500   -6.4952    0.0000 N   0  0  0  0  0  0  0  0  0  0  0  0
    3.0000   -5.1962    0.0000 C   0  0  0  0  0  0  0  0  0  0  0  0
  1  2  1  0
  2  3  2  0
  2  4  1  0
  4  5  2  0
  5  6  1  0
  6  7  2  0
  7  8  1  0
  8  9  2  0
  9 10  1  0
 10 11  2  0
 11 12  1  0
 12 13  2  0
  6 14  1  0
 14 15  2  0
 15 16  1  0
 16 17  2  0
 17 18  1  0
 18 19  1  0
 18 20  2  0
 13  4  1  0
 13  8  1  0
 20 14  1  0
M  END
>  <Molecule>  (638) 
CHEMBL1970314

>  <Standard Type>  (638) 
Ki

>  <Standard Relation>  (638) 
>

>  <Standard Value>  (638) 
1584.89

>  <Standard Units>  (638) 
nM

>  <pChEMBL Value>  (638) 
nan

>  <Comment>  (638) 
inactive

>  <Compound Key>  (638) 
SID103905443

>  <Assay>  (638) 
CHEMBL1963742

>  <Assay Description>  (638) 
PUBCHEM_BIOASSAY: Navigating the Kinome. (Class of assay: other) Panel member name: JAK3

>  <BAO Format>  (638) 
assay format

>  <Target>  (638) 
CHEMBL2148

>  <Target Pref. Name>  (638) 
Tyrosine-protein kinase JAK3

>  <Target Organism>  (638) 
Homo sapiens

>  <Target Type>  (638) 
SINGLE PROTEIN

>  <Document>  (638) 
CHEMBL1201862

>  <Source>  (638) 
PubChem BioAssays

>  <Max Phase>  (638) 
0

>  <#Ro5 Violations>  (638) 
0

>  <Molecular Weight>  (638) 
263.3

>  <Ligand Efficiency BEI>  (638) 
nan

>  <Ligand Efficiency LE>  (638) 
nan

>  <Ligand Efficiency LLE>  (638) 
nan

>  <Ligand Efficiency SEI>  (638) 
nan

>  <ALogP>  (638) 
2.58

>  <Assay Organism>  (638) 
nan

>  <Assay Tissue ChEMBL ID>  (638) 
nan

>  <Assay Tissue Name>  (638) 
nan

>  <Assay Cell Type>  (638) 
nan

>  <Assay Subcellular Fraction>  (638) 
nan

>  <Organism Tax ID>  (638) 
9606

>  <BAO Format ID>  (638) 
BAO_0000019

>  <Published Type>  (638) 
nan

>  <Published Relation>  (638) 
nan

>  <Published Value>  (638) 
nan

>  <Published Units>  (638) 
nan

>  <Canonical Smiles>  (638) 
NC(=O)c1cc(cc2cccnc12)c3cccc(N)c3

>  <Data Validity Comment>  (638) 
nan

>  <Document Journal>  (638) 
nan

>  <Document Year>  (638) 
nan

>  <SRC ID>  (638) 
7

>  <UO Units>  (638) 
UO_0000065

>  <Potential Duplicate>  (638) 
False

>  <Class>  (638) 
0

$$$$

     RDKit          2D

 23 24  0  0  0  0  0  0  0  0999 V2000
    2.7990   -1.8481    0.0000 C   0  0  0  0  0  0  0  0  0  0  0  0
    1.5000   -2.5981    0.0000 C   0  0  0  0  0  0  0  0  0  0  0  0
    0.2010   -3.3481    0.0000 C   0  0  0  0  0  0  0  0  0  0  0  0
    0.2010   -4.8481    0.0000 C   0  0  0  0  0  0  0  0  0  0  0  0
   -1.0981   -5.5981    0.0000 C   0  0  0  0  0  0  0  0  0  0  0  0
   -2.3971   -4.8481    0.0000 O   0  0  0  0  0  0  0  0  0  0  0  0
   -1.0981   -7.0981    0.0000 O   0  0  0  0  0  0  0  0  0  0  0  0
    0.7500   -1.2990    0.0000 C   0  0  0  0  0  0  0  0  0  0  0  0
    1.5000    0.0000    0.0000 C   0  0  0  0  0  0  0  0  0  0  0  0
    0.7500    1.2990    0.0000 C   0  0  0  0  0  0  0  0  0  0  0  0
   -0.7500    1.2990    0.0000 C   0  0  0  0  0  0  0  0  0  0  0  0
   -1.5000    2.5981    0.0000 O   0  0  0  0  0  0  0  0  0  0  0  0
   -1.5000    0.0000    0.0000 C   0  0  0  0  0  0  0  0  0  0  0  0
   -3.0000    0.0000    0.0000 N   0  0  0  0  0  0  0  0  0  0  0  0
   -0.7500   -1.2990    0.0000 C   0  0  0  0  0  0  0  0  0  0  0  0
    2.2500   -3.8971    0.0000 C   0  0  0  0  0  0  0  0  0  0  0  0
    1.5000   -5.1962    0.0000 C   0  0  0  0  0  0  0  0  0  0  0  0
    2.2500   -6.4952    0.0000 C   0  0  0  0  0  0  0  0  0  0  0  0
    3.7500   -6.4952    0.0000 C   0  0  0  0  0  0  0  0  0  0  0  0
    4.5000   -7.7942    0.0000 O   0  0  0  0  0  0  0  0  0  0  0  0
    4.5000   -5.1962    0.0000 C   0  0  0  0  0  0  0  0  0  0  0  0
    6.0000   -5.1962    0.0000 N   0  0  0  0  0  0  0  0  0  0  0  0
    3.7500   -3.8971    0.0000 C   0  0  0  0  0  0  0  0  0  0  0  0
  1  2  1  0
  2  3  1  0
  3  4  1  0
  4  5  1  0
  5  6  2  0
  5  7  1  0
  2  8  1  0
  8  9  2  0
  9 10  1  0
 10 11  2  0
 11 12  1  0
 11 13  1  0
 13 14  1  0
 13 15  2  0
  2 16  1  0
 16 17  2  0
 17 18  1  0
 18 19  2  0
 19 20  1  0
 19 21  1  0
 21 22  1  0
 21 23  2  0
 15  8  1  0
 23 16  1  0
M  END
>  <Molecule>  (639) 
CHEMBL1975923

>  <Standard Type>  (639) 
Ki

>  <Standard Relation>  (639) 
=

>  <Standard Value>  (639) 
1995.26

>  <Standard Units>  (639) 
nM

>  <pChEMBL Value>  (639) 
5.7

>  <Comment>  (639) 
active

>  <Compound Key>  (639) 
SID103905177

>  <Assay>  (639) 
CHEMBL1963742

>  <Assay Description>  (639) 
PUBCHEM_BIOASSAY: Navigating the Kinome. (Class of assay: other) Panel member name: JAK3

>  <BAO Format>  (639) 
assay format

>  <Target>  (639) 
CHEMBL2148

>  <Target Pref. Name>  (639) 
Tyrosine-protein kinase JAK3

>  <Target Organism>  (639) 
Homo sapiens

>  <Target Type>  (639) 
SINGLE PROTEIN

>  <Document>  (639) 
CHEMBL1201862

>  <Source>  (639) 
PubChem BioAssays

>  <Max Phase>  (639) 
0

>  <#Ro5 Violations>  (639) 
0

>  <Molecular Weight>  (639) 
316.36

>  <Ligand Efficiency BEI>  (639) 
nan

>  <Ligand Efficiency LE>  (639) 
nan

>  <Ligand Efficiency LLE>  (639) 
nan

>  <Ligand Efficiency SEI>  (639) 
nan

>  <ALogP>  (639) 
2.43

>  <Assay Organism>  (639) 
nan

>  <Assay Tissue ChEMBL ID>  (639) 
nan

>  <Assay Tissue Name>  (639) 
nan

>  <Assay Cell Type>  (639) 
nan

>  <Assay Subcellular Fraction>  (639) 
nan

>  <Organism Tax ID>  (639) 
9606

>  <BAO Format ID>  (639) 
BAO_0000019

>  <Published Type>  (639) 
nan

>  <Published Relation>  (639) 
nan

>  <Published Value>  (639) 
nan

>  <Published Units>  (639) 
nan

>  <Canonical Smiles>  (639) 
CC(CCC(=O)O)(c1ccc(O)c(N)c1)c2ccc(O)c(N)c2

>  <Data Validity Comment>  (639) 
nan

>  <Document Journal>  (639) 
nan

>  <Document Year>  (639) 
nan

>  <SRC ID>  (639) 
7

>  <UO Units>  (639) 
UO_0000065

>  <Potential Duplicate>  (639) 
False

>  <Class>  (639) 
1

$$$$

     RDKit          2D

 22 24  0  0  0  0  0  0  0  0999 V2000
    0.4022   -7.7629    0.0000 C   0  0  0  0  0  0  0  0  0  0  0  0
    0.2454   -6.2711    0.0000 C   0  0  0  0  0  0  0  0  0  0  0  0
    1.3601   -5.2674    0.0000 C   0  0  0  0  0  0  0  0  0  0  0  0
    0.7500   -3.8971    0.0000 C   0  0  0  0  0  0  0  0  0  0  0  0
    1.5000   -2.5981    0.0000 N   0  0  0  0  0  0  0  0  0  0  0  0
    0.7500   -1.2990    0.0000 C   0  0  0  0  0  0  0  0  0  0  0  0
    1.5000    0.0000    0.0000 N   0  0  0  0  0  0  0  0  0  0  0  0
    0.7500    1.2990    0.0000 C   0  0  0  0  0  0  0  0  0  0  0  0
    1.5000    2.5981    0.0000 Cl  0  0  0  0  0  0  0  0  0  0  0  0
   -0.7500    1.2990    0.0000 C   0  0  0  0  0  0  0  0  0  0  0  0
   -1.5000    0.0000    0.0000 C   0  0  0  0  0  0  0  0  0  0  0  0
   -3.0000    0.0000    0.0000 N   0  0  0  0  0  0  0  0  0  0  0  0
   -3.7500    1.2990    0.0000 C   0  0  0  0  0  0  0  0  0  0  0  0
   -5.2500    1.2990    0.0000 C   0  0  0  0  0  0  0  0  0  0  0  0
   -6.0000    2.5981    0.0000 C   0  0  0  0  0  0  0  0  0  0  0  0
   -7.5000    2.5981    0.0000 C   0  0  0  0  0  0  0  0  0  0  0  0
   -8.2500    1.2990    0.0000 C   0  0  0  0  0  0  0  0  0  0  0  0
   -7.5000    0.0000    0.0000 C   0  0  0  0  0  0  0  0  0  0  0  0
   -6.0000    0.0000    0.0000 C   0  0  0  0  0  0  0  0  0  0  0  0
   -0.7500   -1.2990    0.0000 N   0  0  0  0  0  0  0  0  0  0  0  0
   -0.7418   -4.0539    0.0000 N   0  0  0  0  0  0  0  0  0  0  0  0
   -1.0537   -5.5211    0.0000 N   0  0  0  0  0  0  0  0  0  0  0  0
  1  2  1  0
  2  3  2  0
  3  4  1  0
  4  5  1  0
  5  6  1  0
  6  7  2  0
  7  8  1  0
  8  9  1  0
  8 10  2  0
 10 11  1  0
 11 12  1  0
 12 13  1  0
 13 14  1  0
 14 15  2  0
 15 16  1  0
 16 17  2  0
 17 18  1  0
 18 19  2  0
 11 20  2  0
  4 21  2  0
 21 22  1  0
 22  2  1  0
 20  6  1  0
 19 14  1  0
M  END
>  <Molecule>  (640) 
CHEMBL2005449

>  <Standard Type>  (640) 
Ki

>  <Standard Relation>  (640) 
=

>  <Standard Value>  (640) 
100.0

>  <Standard Units>  (640) 
nM

>  <pChEMBL Value>  (640) 
7.0

>  <Comment>  (640) 
active

>  <Compound Key>  (640) 
SID103905504

>  <Assay>  (640) 
CHEMBL1963742

>  <Assay Description>  (640) 
PUBCHEM_BIOASSAY: Navigating the Kinome. (Class of assay: other) Panel member name: JAK3

>  <BAO Format>  (640) 
assay format

>  <Target>  (640) 
CHEMBL2148

>  <Target Pref. Name>  (640) 
Tyrosine-protein kinase JAK3

>  <Target Organism>  (640) 
Homo sapiens

>  <Target Type>  (640) 
SINGLE PROTEIN

>  <Document>  (640) 
CHEMBL1201862

>  <Source>  (640) 
PubChem BioAssays

>  <Max Phase>  (640) 
0

>  <#Ro5 Violations>  (640) 
0

>  <Molecular Weight>  (640) 
314.78

>  <Ligand Efficiency BEI>  (640) 
nan

>  <Ligand Efficiency LE>  (640) 
nan

>  <Ligand Efficiency LLE>  (640) 
nan

>  <Ligand Efficiency SEI>  (640) 
nan

>  <ALogP>  (640) 
3.52

>  <Assay Organism>  (640) 
nan

>  <Assay Tissue ChEMBL ID>  (640) 
nan

>  <Assay Tissue Name>  (640) 
nan

>  <Assay Cell Type>  (640) 
nan

>  <Assay Subcellular Fraction>  (640) 
nan

>  <Organism Tax ID>  (640) 
9606

>  <BAO Format ID>  (640) 
BAO_0000019

>  <Published Type>  (640) 
nan

>  <Published Relation>  (640) 
nan

>  <Published Value>  (640) 
nan

>  <Published Units>  (640) 
nan

>  <Canonical Smiles>  (640) 
Cc1cc(Nc2nc(Cl)cc(NCc3ccccc3)n2)n[nH]1

>  <Data Validity Comment>  (640) 
nan

>  <Document Journal>  (640) 
nan

>  <Document Year>  (640) 
nan

>  <SRC ID>  (640) 
7

>  <UO Units>  (640) 
UO_0000065

>  <Potential Duplicate>  (640) 
False

>  <Class>  (640) 
1

$$$$

     RDKit          2D

 23 26  0  0  0  0  0  0  0  0999 V2000
    3.8971   -5.8573    0.0000 F   0  0  0  0  0  0  0  0  0  0  0  0
    3.8971   -7.3573    0.0000 C   0  0  0  0  0  0  0  0  0  0  0  0
    5.1962   -8.1073    0.0000 C   0  0  0  0  0  0  0  0  0  0  0  0
    5.1962   -9.6073    0.0000 C   0  0  0  0  0  0  0  0  0  0  0  0
    3.8971  -10.3573    0.0000 C   0  0  0  0  0  0  0  0  0  0  0  0
    2.5981   -9.6073    0.0000 C   0  0  0  0  0  0  0  0  0  0  0  0
    2.5981   -8.1073    0.0000 C   0  0  0  0  0  0  0  0  0  0  0  0
    1.2990   -7.3573    0.0000 C   0  0  0  0  0  0  0  0  0  0  0  0
    1.2990   -5.8573    0.0000 C   0  0  0  0  0  0  0  0  0  0  0  0
   -0.0000   -5.1073    0.0000 C   0  0  0  0  0  0  0  0  0  0  0  0
   -1.2990   -5.8573    0.0000 C   0  0  0  0  0  0  0  0  0  0  0  0
   -1.2990   -7.3573    0.0000 C   0  0  0  0  0  0  0  0  0  0  0  0
   -0.0000   -8.1073    0.0000 N   0  0  0  0  0  0  0  0  0  0  0  0
   -0.0000   -3.6073    0.0000 C   0  0  0  0  0  0  0  0  0  0  0  0
    1.2135   -2.7256    0.0000 C   0  0  0  0  0  0  0  0  0  0  0  0
    0.7500   -1.2990    0.0000 C   0  0  0  0  0  0  0  0  0  0  0  0
    1.5000    0.0000    0.0000 C   0  0  0  0  0  0  0  0  0  0  0  0
    3.0000    0.0000    0.0000 O   0  0  0  0  0  0  0  0  0  0  0  0
    0.7500    1.2990    0.0000 N   0  0  0  0  0  0  0  0  0  0  0  0
   -0.7500    1.2990    0.0000 C   0  0  0  0  0  0  0  0  0  0  0  0
   -1.5000    0.0000    0.0000 C   0  0  0  0  0  0  0  0  0  0  0  0
   -0.7500   -1.2990    0.0000 C   0  0  0  0  0  0  0  0  0  0  0  0
   -1.2135   -2.7256    0.0000 N   0  0  0  0  0  0  0  0  0  0  0  0
  1  2  1  0
  2  3  2  0
  3  4  1  0
  4  5  2  0
  5  6  1  0
  6  7  2  0
  7  8  1  0
  8  9  2  0
  9 10  1  0
 10 11  2  0
 11 12  1  0
 12 13  2  0
 10 14  1  0
 14 15  2  0
 15 16  1  0
 16 17  1  0
 17 18  2  0
 17 19  1  0
 19 20  1  0
 20 21  1  0
 21 22  1  0
 22 23  1  0
  7  2  1  0
 13  8  1  0
 23 14  1  0
 22 16  2  0
M  END
>  <Molecule>  (641) 
CHEMBL226471

>  <Standard Type>  (641) 
Ki

>  <Standard Relation>  (641) 
>

>  <Standard Value>  (641) 
1584.89

>  <Standard Units>  (641) 
nM

>  <pChEMBL Value>  (641) 
nan

>  <Comment>  (641) 
inactive

>  <Compound Key>  (641) 
SID103904965

>  <Assay>  (641) 
CHEMBL1963742

>  <Assay Description>  (641) 
PUBCHEM_BIOASSAY: Navigating the Kinome. (Class of assay: other) Panel member name: JAK3

>  <BAO Format>  (641) 
assay format

>  <Target>  (641) 
CHEMBL2148

>  <Target Pref. Name>  (641) 
Tyrosine-protein kinase JAK3

>  <Target Organism>  (641) 
Homo sapiens

>  <Target Type>  (641) 
SINGLE PROTEIN

>  <Document>  (641) 
CHEMBL1201862

>  <Source>  (641) 
PubChem BioAssays

>  <Max Phase>  (641) 
0

>  <#Ro5 Violations>  (641) 
0

>  <Molecular Weight>  (641) 
307.33

>  <Ligand Efficiency BEI>  (641) 
nan

>  <Ligand Efficiency LE>  (641) 
nan

>  <Ligand Efficiency LLE>  (641) 
nan

>  <Ligand Efficiency SEI>  (641) 
nan

>  <ALogP>  (641) 
3.17

>  <Assay Organism>  (641) 
nan

>  <Assay Tissue ChEMBL ID>  (641) 
nan

>  <Assay Tissue Name>  (641) 
nan

>  <Assay Cell Type>  (641) 
nan

>  <Assay Subcellular Fraction>  (641) 
nan

>  <Organism Tax ID>  (641) 
9606

>  <BAO Format ID>  (641) 
BAO_0000019

>  <Published Type>  (641) 
nan

>  <Published Relation>  (641) 
nan

>  <Published Value>  (641) 
nan

>  <Published Units>  (641) 
nan

>  <Canonical Smiles>  (641) 
Fc1ccccc1c2cc(ccn2)c3cc4C(=O)NCCc4[nH]3

>  <Data Validity Comment>  (641) 
nan

>  <Document Journal>  (641) 
nan

>  <Document Year>  (641) 
nan

>  <SRC ID>  (641) 
7

>  <UO Units>  (641) 
UO_0000065

>  <Potential Duplicate>  (641) 
False

>  <Class>  (641) 
0

$$$$

     RDKit          2D

 23 25  0  0  0  0  0  0  0  0999 V2000
    3.7500   -1.2990    0.0000 N   0  0  0  0  0  0  0  0  0  0  0  0
    3.0000    0.0000    0.0000 N   0  0  0  0  0  0  0  0  0  0  0  0
    1.5000    0.0000    0.0000 C   0  0  0  0  0  0  0  0  0  0  0  0
    0.7500   -1.2990    0.0000 C   0  0  0  0  0  0  0  0  0  0  0  0
   -0.7500   -1.2990    0.0000 C   0  0  0  0  0  0  0  0  0  0  0  0
   -1.5000    0.0000    0.0000 N   0  0  0  0  0  0  0  0  0  0  0  0
   -0.7500    1.2990    0.0000 C   0  0  0  0  0  0  0  0  0  0  0  0
   -1.5000    2.5981    0.0000 O   0  0  0  0  0  0  0  0  0  0  0  0
   -0.7500    3.8971    0.0000 C   0  0  0  0  0  0  0  0  0  0  0  0
   -1.5000    5.1962    0.0000 C   0  0  0  0  0  0  0  0  0  0  0  0
   -0.7500    6.4952    0.0000 C   0  0  0  0  0  0  0  0  0  0  0  0
    0.7500    6.4952    0.0000 C   0  0  0  0  0  0  0  0  0  0  0  0
    1.5000    7.7942    0.0000 C   0  0  0  0  0  0  0  0  0  0  0  0
    0.7500    9.0933    0.0000 C   0  0  0  0  0  0  0  0  0  0  0  0
   -0.7500    9.0933    0.0000 C   0  0  0  0  0  0  0  0  0  0  0  0
   -1.5000    7.7942    0.0000 N   0  0  0  0  0  0  0  0  0  0  0  0
    0.7500    1.2990    0.0000 N   0  0  0  0  0  0  0  0  0  0  0  0
   -1.5000   -2.5981    0.0000 N   0  0  0  0  0  0  0  0  0  0  0  0
   -3.0000   -2.5981    0.0000 C   0  0  0  0  0  0  0  0  0  0  0  0
   -3.7500   -3.8971    0.0000 C   0  0  0  0  0  0  0  0  0  0  0  0
   -3.0000   -5.1962    0.0000 O   0  0  0  0  0  0  0  0  0  0  0  0
   -1.5000   -5.1962    0.0000 C   0  0  0  0  0  0  0  0  0  0  0  0
   -0.7500   -3.8971    0.0000 C   0  0  0  0  0  0  0  0  0  0  0  0
  1  2  1  0
  2  3  1  0
  3  4  2  0
  4  5  1  0
  5  6  2  0
  6  7  1  0
  7  8  1  0
  8  9  1  0
  9 10  1  0
 10 11  1  0
 11 12  2  0
 12 13  1  0
 13 14  2  0
 14 15  1  0
 15 16  2  0
  7 17  2  0
  5 18  1  0
 18 19  1  0
 19 20  1  0
 20 21  1  0
 21 22  1  0
 22 23  1  0
 17  3  1  0
 16 11  1  0
 23 18  1  0
M  END
>  <Molecule>  (642) 
CHEMBL1996208

>  <Standard Type>  (642) 
Ki

>  <Standard Relation>  (642) 
>

>  <Standard Value>  (642) 
5011.87

>  <Standard Units>  (642) 
nM

>  <pChEMBL Value>  (642) 
nan

>  <Comment>  (642) 
inactive

>  <Compound Key>  (642) 
SID103905498

>  <Assay>  (642) 
CHEMBL1963742

>  <Assay Description>  (642) 
PUBCHEM_BIOASSAY: Navigating the Kinome. (Class of assay: other) Panel member name: JAK3

>  <BAO Format>  (642) 
assay format

>  <Target>  (642) 
CHEMBL2148

>  <Target Pref. Name>  (642) 
Tyrosine-protein kinase JAK3

>  <Target Organism>  (642) 
Homo sapiens

>  <Target Type>  (642) 
SINGLE PROTEIN

>  <Document>  (642) 
CHEMBL1201862

>  <Source>  (642) 
PubChem BioAssays

>  <Max Phase>  (642) 
0

>  <#Ro5 Violations>  (642) 
0

>  <Molecular Weight>  (642) 
316.37

>  <Ligand Efficiency BEI>  (642) 
nan

>  <Ligand Efficiency LE>  (642) 
nan

>  <Ligand Efficiency LLE>  (642) 
nan

>  <Ligand Efficiency SEI>  (642) 
nan

>  <ALogP>  (642) 
0.62

>  <Assay Organism>  (642) 
nan

>  <Assay Tissue ChEMBL ID>  (642) 
nan

>  <Assay Tissue Name>  (642) 
nan

>  <Assay Cell Type>  (642) 
nan

>  <Assay Subcellular Fraction>  (642) 
nan

>  <Organism Tax ID>  (642) 
9606

>  <BAO Format ID>  (642) 
BAO_0000019

>  <Published Type>  (642) 
nan

>  <Published Relation>  (642) 
nan

>  <Published Value>  (642) 
nan

>  <Published Units>  (642) 
nan

>  <Canonical Smiles>  (642) 
NNc1cc(nc(OCCc2ccccn2)n1)N3CCOCC3

>  <Data Validity Comment>  (642) 
nan

>  <Document Journal>  (642) 
nan

>  <Document Year>  (642) 
nan

>  <SRC ID>  (642) 
7

>  <UO Units>  (642) 
UO_0000065

>  <Potential Duplicate>  (642) 
False

>  <Class>  (642) 
0

$$$$

     RDKit          2D

 26 28  0  0  0  0  0  0  0  0999 V2000
    2.5981  -11.1073    0.0000 C   0  0  0  0  0  0  0  0  0  0  0  0
    1.2990  -10.3573    0.0000 S   0  0  0  0  0  0  0  0  0  0  0  0
    2.0490   -9.0583    0.0000 O   0  0  0  0  0  0  0  0  0  0  0  0
    0.5490  -11.6563    0.0000 O   0  0  0  0  0  0  0  0  0  0  0  0
   -0.0000   -9.6073    0.0000 C   0  0  0  0  0  0  0  0  0  0  0  0
   -1.2990  -10.3573    0.0000 C   0  0  0  0  0  0  0  0  0  0  0  0
   -2.5981   -9.6073    0.0000 C   0  0  0  0  0  0  0  0  0  0  0  0
   -2.5981   -8.1073    0.0000 C   0  0  0  0  0  0  0  0  0  0  0  0
   -1.2990   -7.3573    0.0000 C   0  0  0  0  0  0  0  0  0  0  0  0
   -0.0000   -8.1073    0.0000 C   0  0  0  0  0  0  0  0  0  0  0  0
   -1.2990   -5.8573    0.0000 C   0  0  0  0  0  0  0  0  0  0  0  0
   -2.5981   -5.1073    0.0000 O   0  0  0  0  0  0  0  0  0  0  0  0
   -0.0000   -5.1073    0.0000 N   0  0  0  0  0  0  0  0  0  0  0  0
   -0.0000   -3.6073    0.0000 C   0  0  0  0  0  0  0  0  0  0  0  0
    1.2135   -2.7256    0.0000 N   0  0  0  0  0  0  0  0  0  0  0  0
    0.7500   -1.2990    0.0000 C   0  0  0  0  0  0  0  0  0  0  0  0
    1.5000    0.0000    0.0000 C   0  0  0  0  0  0  0  0  0  0  0  0
    0.7500    1.2990    0.0000 C   0  0  0  0  0  0  0  0  0  0  0  0
   -0.7500    1.2990    0.0000 C   0  0  0  0  0  0  0  0  0  0  0  0
   -1.5000    0.0000    0.0000 C   0  0  0  0  0  0  0  0  0  0  0  0
   -0.7500   -1.2990    0.0000 C   0  0  0  0  0  0  0  0  0  0  0  0
   -1.2135   -2.7256    0.0000 N   0  0  0  0  0  0  0  0  0  0  0  0
   -2.6401   -3.1891    0.0000 C   0  0  0  0  0  0  0  0  0  0  0  0
   -3.7548   -2.1855    0.0000 C   0  0  0  0  0  0  0  0  0  0  0  0
   -5.1814   -2.6490    0.0000 C   0  0  0  0  0  0  0  0  0  0  0  0
   -6.2961   -1.6453    0.0000 O   0  0  0  0  0  0  0  0  0  0  0  0
  1  2  1  0
  2  3  2  0
  2  4  2  0
  2  5  1  0
  5  6  2  0
  6  7  1  0
  7  8  2  0
  8  9  1  0
  9 10  2  0
  9 11  1  0
 11 12  2  0
 11 13  1  0
 13 14  1  0
 14 15  2  0
 15 16  1  0
 16 17  2  0
 17 18  1  0
 18 19  2  0
 19 20  1  0
 20 21  2  0
 21 22  1  0
 22 23  1  0
 23 24  1  0
 24 25  1  0
 25 26  1  0
 10  5  1  0
 22 14  1  0
 21 16  1  0
M  END
>  <Molecule>  (643) 
CHEMBL1973016

>  <Standard Type>  (643) 
Ki

>  <Standard Relation>  (643) 
>

>  <Standard Value>  (643) 
5011.87

>  <Standard Units>  (643) 
nM

>  <pChEMBL Value>  (643) 
nan

>  <Comment>  (643) 
inactive

>  <Compound Key>  (643) 
SID103905080

>  <Assay>  (643) 
CHEMBL1963742

>  <Assay Description>  (643) 
PUBCHEM_BIOASSAY: Navigating the Kinome. (Class of assay: other) Panel member name: JAK3

>  <BAO Format>  (643) 
assay format

>  <Target>  (643) 
CHEMBL2148

>  <Target Pref. Name>  (643) 
Tyrosine-protein kinase JAK3

>  <Target Organism>  (643) 
Homo sapiens

>  <Target Type>  (643) 
SINGLE PROTEIN

>  <Document>  (643) 
CHEMBL1201862

>  <Source>  (643) 
PubChem BioAssays

>  <Max Phase>  (643) 
0

>  <#Ro5 Violations>  (643) 
0

>  <Molecular Weight>  (643) 
373.43

>  <Ligand Efficiency BEI>  (643) 
nan

>  <Ligand Efficiency LE>  (643) 
nan

>  <Ligand Efficiency LLE>  (643) 
nan

>  <Ligand Efficiency SEI>  (643) 
nan

>  <ALogP>  (643) 
2.07

>  <Assay Organism>  (643) 
nan

>  <Assay Tissue ChEMBL ID>  (643) 
nan

>  <Assay Tissue Name>  (643) 
nan

>  <Assay Cell Type>  (643) 
nan

>  <Assay Subcellular Fraction>  (643) 
nan

>  <Organism Tax ID>  (643) 
9606

>  <BAO Format ID>  (643) 
BAO_0000019

>  <Published Type>  (643) 
nan

>  <Published Relation>  (643) 
nan

>  <Published Value>  (643) 
nan

>  <Published Units>  (643) 
nan

>  <Canonical Smiles>  (643) 
CS(=O)(=O)c1cccc(c1)C(=O)Nc2nc3ccccc3n2CCCO

>  <Data Validity Comment>  (643) 
nan

>  <Document Journal>  (643) 
nan

>  <Document Year>  (643) 
nan

>  <SRC ID>  (643) 
7

>  <UO Units>  (643) 
UO_0000065

>  <Potential Duplicate>  (643) 
False

>  <Class>  (643) 
0

$$$$

     RDKit          2D

 26 29  0  0  0  0  0  0  0  0999 V2000
  -11.2546    9.9358    0.0000 Cl  0  0  0  0  0  0  0  0  0  0  0  0
   -9.7874    9.6239    0.0000 C   0  0  0  0  0  0  0  0  0  0  0  0
   -8.7837   10.7386    0.0000 C   0  0  0  0  0  0  0  0  0  0  0  0
   -7.3164   10.4267    0.0000 C   0  0  0  0  0  0  0  0  0  0  0  0
   -6.8529    9.0002    0.0000 C   0  0  0  0  0  0  0  0  0  0  0  0
   -5.3857    8.6883    0.0000 C   0  0  0  0  0  0  0  0  0  0  0  0
   -4.9222    7.2617    0.0000 N   0  0  0  0  0  0  0  0  0  0  0  0
   -3.4549    6.9498    0.0000 C   0  0  0  0  0  0  0  0  0  0  0  0
   -2.6380    5.6918    0.0000 C   0  0  0  0  0  0  0  0  0  0  0  0
   -2.9499    4.2246    0.0000 N   0  0  0  0  0  0  0  0  0  0  0  0
   -1.8351    3.2209    0.0000 C   0  0  0  0  0  0  0  0  0  0  0  0
   -0.4086    3.6844    0.0000 C   0  0  0  0  0  0  0  0  0  0  0  0
    0.7062    2.6807    0.0000 C   0  0  0  0  0  0  0  0  0  0  0  0
    0.3943    1.2135    0.0000 C   0  0  0  0  0  0  0  0  0  0  0  0
    1.2760    0.0000    0.0000 N   0  0  0  0  0  0  0  0  0  0  0  0
    0.3943   -1.2135    0.0000 N   0  0  0  0  0  0  0  0  0  0  0  0
   -1.0323   -0.7500    0.0000 C   0  0  0  0  0  0  0  0  0  0  0  0
   -1.0323    0.7500    0.0000 C   0  0  0  0  0  0  0  0  0  0  0  0
   -2.1470    1.7537    0.0000 C   0  0  0  0  0  0  0  0  0  0  0  0
   -1.3800    6.5088    0.0000 C   0  0  0  0  0  0  0  0  0  0  0  0
    0.0872    6.1969    0.0000 O   0  0  0  0  0  0  0  0  0  0  0  0
   -2.1969    7.7668    0.0000 C   0  0  0  0  0  0  0  0  0  0  0  0
   -1.8851    9.2340    0.0000 O   0  0  0  0  0  0  0  0  0  0  0  0
   -7.8566    7.8854    0.0000 C   0  0  0  0  0  0  0  0  0  0  0  0
   -7.3931    6.4589    0.0000 Cl  0  0  0  0  0  0  0  0  0  0  0  0
   -9.3238    8.1973    0.0000 C   0  0  0  0  0  0  0  0  0  0  0  0
  1  2  1  0
  2  3  2  0
  3  4  1  0
  4  5  2  0
  5  6  1  0
  6  7  1  0
  7  8  1  0
  8  9  2  0
  9 10  1  0
 10 11  1  0
 11 12  2  0
 12 13  1  0
 13 14  2  0
 14 15  1  0
 15 16  1  0
 16 17  2  0
 17 18  1  0
 18 19  2  0
  9 20  1  0
 20 21  2  0
 20 22  1  0
 22 23  2  0
  5 24  1  0
 24 25  1  0
 24 26  2  0
 26  2  1  0
 22  8  1  0
 19 11  1  0
 18 14  1  0
M  END
>  <Molecule>  (644) 
CHEMBL1979554

>  <Standard Type>  (644) 
Ki

>  <Standard Relation>  (644) 
>

>  <Standard Value>  (644) 
1584.89

>  <Standard Units>  (644) 
nM

>  <pChEMBL Value>  (644) 
nan

>  <Comment>  (644) 
inactive

>  <Compound Key>  (644) 
SID103904662

>  <Assay>  (644) 
CHEMBL1963742

>  <Assay Description>  (644) 
PUBCHEM_BIOASSAY: Navigating the Kinome. (Class of assay: other) Panel member name: JAK3

>  <BAO Format>  (644) 
assay format

>  <Target>  (644) 
CHEMBL2148

>  <Target Pref. Name>  (644) 
Tyrosine-protein kinase JAK3

>  <Target Organism>  (644) 
Homo sapiens

>  <Target Type>  (644) 
SINGLE PROTEIN

>  <Document>  (644) 
CHEMBL1201862

>  <Source>  (644) 
PubChem BioAssays

>  <Max Phase>  (644) 
0

>  <#Ro5 Violations>  (644) 
0

>  <Molecular Weight>  (644) 
387.23

>  <Ligand Efficiency BEI>  (644) 
nan

>  <Ligand Efficiency LE>  (644) 
nan

>  <Ligand Efficiency LLE>  (644) 
nan

>  <Ligand Efficiency SEI>  (644) 
nan

>  <ALogP>  (644) 
3.82

>  <Assay Organism>  (644) 
nan

>  <Assay Tissue ChEMBL ID>  (644) 
nan

>  <Assay Tissue Name>  (644) 
nan

>  <Assay Cell Type>  (644) 
nan

>  <Assay Subcellular Fraction>  (644) 
nan

>  <Organism Tax ID>  (644) 
9606

>  <BAO Format ID>  (644) 
BAO_0000019

>  <Published Type>  (644) 
nan

>  <Published Relation>  (644) 
nan

>  <Published Value>  (644) 
nan

>  <Published Units>  (644) 
nan

>  <Canonical Smiles>  (644) 
Clc1ccc(CNC2=C(Nc3ccc4[nH]ncc4c3)C(=O)C2=O)c(Cl)c1

>  <Data Validity Comment>  (644) 
nan

>  <Document Journal>  (644) 
nan

>  <Document Year>  (644) 
nan

>  <SRC ID>  (644) 
7

>  <UO Units>  (644) 
UO_0000065

>  <Potential Duplicate>  (644) 
False

>  <Class>  (644) 
0

$$$$

     RDKit          2D

 19 21  0  0  0  0  0  0  0  0999 V2000
    6.0000   -2.5981    0.0000 O   0  0  0  0  0  0  0  0  0  0  0  0
    5.2500   -1.2990    0.0000 C   0  0  0  0  0  0  0  0  0  0  0  0
    3.7500   -1.2990    0.0000 C   0  0  0  0  0  0  0  0  0  0  0  0
    3.0000    0.0000    0.0000 N   0  0  0  0  0  0  0  0  0  0  0  0
    1.5000    0.0000    0.0000 C   0  0  0  0  0  0  0  0  0  0  0  0
    0.7500   -1.2990    0.0000 C   0  0  0  0  0  0  0  0  0  0  0  0
   -0.7500   -1.2990    0.0000 C   0  0  0  0  0  0  0  0  0  0  0  0
   -1.5000   -2.5981    0.0000 C   0  0  0  0  0  0  0  0  0  0  0  0
   -3.0000   -2.5981    0.0000 C   0  0  0  0  0  0  0  0  0  0  0  0
   -3.7500   -1.2990    0.0000 C   0  0  0  0  0  0  0  0  0  0  0  0
   -3.0000    0.0000    0.0000 C   0  0  0  0  0  0  0  0  0  0  0  0
   -1.5000    0.0000    0.0000 C   0  0  0  0  0  0  0  0  0  0  0  0
   -0.7500    1.2990    0.0000 C   0  0  0  0  0  0  0  0  0  0  0  0
    0.7500    1.2990    0.0000 N   0  0  0  0  0  0  0  0  0  0  0  0
   -3.7500   -3.8971    0.0000 C   0  0  0  0  0  0  0  0  0  0  0  0
   -3.1399   -5.2674    0.0000 C   0  0  0  0  0  0  0  0  0  0  0  0
   -4.2546   -6.2711    0.0000 C   0  0  0  0  0  0  0  0  0  0  0  0
   -5.5537   -5.5211    0.0000 S   0  0  0  0  0  0  0  0  0  0  0  0
   -5.2418   -4.0539    0.0000 C   0  0  0  0  0  0  0  0  0  0  0  0
  1  2  1  0
  2  3  1  0
  3  4  1  0
  4  5  1  0
  5  6  2  0
  6  7  1  0
  7  8  2  0
  8  9  1  0
  9 10  2  0
 10 11  1  0
 11 12  2  0
 12 13  1  0
 13 14  2  0
  9 15  1  0
 15 16  1  0
 16 17  2  0
 17 18  1  0
 18 19  1  0
 14  5  1  0
 12  7  1  0
 19 15  2  0
M  END
>  <Molecule>  (645) 
CHEMBL1973860

>  <Standard Type>  (645) 
Ki

>  <Standard Relation>  (645) 
>

>  <Standard Value>  (645) 
1584.89

>  <Standard Units>  (645) 
nM

>  <pChEMBL Value>  (645) 
nan

>  <Comment>  (645) 
inactive

>  <Compound Key>  (645) 
SID103905449

>  <Assay>  (645) 
CHEMBL1963742

>  <Assay Description>  (645) 
PUBCHEM_BIOASSAY: Navigating the Kinome. (Class of assay: other) Panel member name: JAK3

>  <BAO Format>  (645) 
assay format

>  <Target>  (645) 
CHEMBL2148

>  <Target Pref. Name>  (645) 
Tyrosine-protein kinase JAK3

>  <Target Organism>  (645) 
Homo sapiens

>  <Target Type>  (645) 
SINGLE PROTEIN

>  <Document>  (645) 
CHEMBL1201862

>  <Source>  (645) 
PubChem BioAssays

>  <Max Phase>  (645) 
0

>  <#Ro5 Violations>  (645) 
0

>  <Molecular Weight>  (645) 
270.36

>  <Ligand Efficiency BEI>  (645) 
nan

>  <Ligand Efficiency LE>  (645) 
nan

>  <Ligand Efficiency LLE>  (645) 
nan

>  <Ligand Efficiency SEI>  (645) 
nan

>  <ALogP>  (645) 
3.37

>  <Assay Organism>  (645) 
nan

>  <Assay Tissue ChEMBL ID>  (645) 
nan

>  <Assay Tissue Name>  (645) 
nan

>  <Assay Cell Type>  (645) 
nan

>  <Assay Subcellular Fraction>  (645) 
nan

>  <Organism Tax ID>  (645) 
9606

>  <BAO Format ID>  (645) 
BAO_0000019

>  <Published Type>  (645) 
nan

>  <Published Relation>  (645) 
nan

>  <Published Value>  (645) 
nan

>  <Published Units>  (645) 
nan

>  <Canonical Smiles>  (645) 
OCCNc1cc2cc(ccc2cn1)c3ccsc3

>  <Data Validity Comment>  (645) 
nan

>  <Document Journal>  (645) 
nan

>  <Document Year>  (645) 
nan

>  <SRC ID>  (645) 
7

>  <UO Units>  (645) 
UO_0000065

>  <Potential Duplicate>  (645) 
False

>  <Class>  (645) 
0

$$$$

     RDKit          2D

 22 25  0  0  0  0  0  0  0  0999 V2000
    2.7760    0.0000    0.0000 N   0  0  0  0  0  0  0  0  0  0  0  0
    1.2760    0.0000    0.0000 C   0  0  0  0  0  0  0  0  0  0  0  0
    0.3943    1.2135    0.0000 N   0  0  0  0  0  0  0  0  0  0  0  0
   -1.0323    0.7500    0.0000 N   0  0  0  0  0  0  0  0  0  0  0  0
   -1.0323   -0.7500    0.0000 C   0  0  0  0  0  0  0  0  0  0  0  0
   -2.1470   -1.7537    0.0000 N   0  0  0  0  0  0  0  0  0  0  0  0
   -1.8351   -3.2209    0.0000 N   0  0  0  0  0  0  0  0  0  0  0  0
   -0.4086   -3.6844    0.0000 C   0  0  0  0  0  0  0  0  0  0  0  0
   -0.0967   -5.1517    0.0000 C   0  0  0  0  0  0  0  0  0  0  0  0
   -1.2114   -6.1554    0.0000 C   0  0  0  0  0  0  0  0  0  0  0  0
   -0.8995   -7.6226    0.0000 C   0  0  0  0  0  0  0  0  0  0  0  0
    0.5271   -8.0861    0.0000 C   0  0  0  0  0  0  0  0  0  0  0  0
    1.6418   -7.0824    0.0000 C   0  0  0  0  0  0  0  0  0  0  0  0
    1.3299   -5.6152    0.0000 C   0  0  0  0  0  0  0  0  0  0  0  0
    0.7062   -2.6807    0.0000 C   0  0  0  0  0  0  0  0  0  0  0  0
    2.1328   -3.1443    0.0000 C   0  0  0  0  0  0  0  0  0  0  0  0
    2.4446   -4.6115    0.0000 C   0  0  0  0  0  0  0  0  0  0  0  0
    3.8712   -5.0750    0.0000 C   0  0  0  0  0  0  0  0  0  0  0  0
    4.9859   -4.0713    0.0000 C   0  0  0  0  0  0  0  0  0  0  0  0
    4.6741   -2.6041    0.0000 C   0  0  0  0  0  0  0  0  0  0  0  0
    3.2475   -2.1406    0.0000 C   0  0  0  0  0  0  0  0  0  0  0  0
    0.3943   -1.2135    0.0000 C   0  0  0  0  0  0  0  0  0  0  0  0
  1  2  1  0
  2  3  2  0
  3  4  1  0
  4  5  1  0
  5  6  2  0
  6  7  1  0
  7  8  2  0
  8  9  1  0
  9 10  2  0
 10 11  1  0
 11 12  2  0
 12 13  1  0
 13 14  2  0
  8 15  1  0
 15 16  1  0
 16 17  2  0
 17 18  1  0
 18 19  2  0
 19 20  1  0
 20 21  2  0
 15 22  2  0
 22  2  1  0
 22  5  1  0
 14  9  1  0
 21 16  1  0
M  END
>  <Molecule>  (646) 
CHEMBL260135

>  <Standard Type>  (646) 
Ki

>  <Standard Relation>  (646) 
>

>  <Standard Value>  (646) 
1584.89

>  <Standard Units>  (646) 
nM

>  <pChEMBL Value>  (646) 
nan

>  <Comment>  (646) 
inactive

>  <Compound Key>  (646) 
SID103905492

>  <Assay>  (646) 
CHEMBL1963742

>  <Assay Description>  (646) 
PUBCHEM_BIOASSAY: Navigating the Kinome. (Class of assay: other) Panel member name: JAK3

>  <BAO Format>  (646) 
assay format

>  <Target>  (646) 
CHEMBL2148

>  <Target Pref. Name>  (646) 
Tyrosine-protein kinase JAK3

>  <Target Organism>  (646) 
Homo sapiens

>  <Target Type>  (646) 
SINGLE PROTEIN

>  <Document>  (646) 
CHEMBL1201862

>  <Source>  (646) 
PubChem BioAssays

>  <Max Phase>  (646) 
0

>  <#Ro5 Violations>  (646) 
0

>  <Molecular Weight>  (646) 
287.33

>  <Ligand Efficiency BEI>  (646) 
nan

>  <Ligand Efficiency LE>  (646) 
nan

>  <Ligand Efficiency LLE>  (646) 
nan

>  <Ligand Efficiency SEI>  (646) 
nan

>  <ALogP>  (646) 
3.27

>  <Assay Organism>  (646) 
nan

>  <Assay Tissue ChEMBL ID>  (646) 
nan

>  <Assay Tissue Name>  (646) 
nan

>  <Assay Cell Type>  (646) 
nan

>  <Assay Subcellular Fraction>  (646) 
nan

>  <Organism Tax ID>  (646) 
9606

>  <BAO Format ID>  (646) 
BAO_0000019

>  <Published Type>  (646) 
nan

>  <Published Relation>  (646) 
nan

>  <Published Value>  (646) 
nan

>  <Published Units>  (646) 
nan

>  <Canonical Smiles>  (646) 
Nc1n[nH]c2nnc(c3ccccc3)c(c4ccccc4)c12

>  <Data Validity Comment>  (646) 
nan

>  <Document Journal>  (646) 
nan

>  <Document Year>  (646) 
nan

>  <SRC ID>  (646) 
7

>  <UO Units>  (646) 
UO_0000065

>  <Potential Duplicate>  (646) 
False

>  <Class>  (646) 
0

$$$$

     RDKit          2D

 29 31  0  0  0  0  0  0  0  0999 V2000
  -12.9041   -9.3825    0.0000 C   0  0  0  0  0  0  0  0  0  0  0  0
  -11.7894   -8.3788    0.0000 C   0  0  0  0  0  0  0  0  0  0  0  0
  -10.3628   -8.8423    0.0000 N   0  0  0  0  0  0  0  0  0  0  0  0
  -10.0510  -10.3095    0.0000 C   0  0  0  0  0  0  0  0  0  0  0  0
  -11.1657  -11.3132    0.0000 C   0  0  0  0  0  0  0  0  0  0  0  0
   -9.2481   -7.8386    0.0000 C   0  0  0  0  0  0  0  0  0  0  0  0
   -7.8215   -8.3021    0.0000 C   0  0  0  0  0  0  0  0  0  0  0  0
   -6.7068   -7.2984    0.0000 N   0  0  0  0  0  0  0  0  0  0  0  0
   -5.2802   -7.7620    0.0000 C   0  0  0  0  0  0  0  0  0  0  0  0
   -4.9684   -9.2292    0.0000 O   0  0  0  0  0  0  0  0  0  0  0  0
   -4.1655   -6.7583    0.0000 C   0  0  0  0  0  0  0  0  0  0  0  0
   -2.6983   -7.0701    0.0000 C   0  0  0  0  0  0  0  0  0  0  0  0
   -2.0882   -8.4404    0.0000 C   0  0  0  0  0  0  0  0  0  0  0  0
   -1.9483   -5.7711    0.0000 N   0  0  0  0  0  0  0  0  0  0  0  0
   -2.9520   -4.6564    0.0000 C   0  0  0  0  0  0  0  0  0  0  0  0
   -2.6401   -3.1891    0.0000 C   0  0  0  0  0  0  0  0  0  0  0  0
   -1.2135   -2.7256    0.0000 C   0  0  0  0  0  0  0  0  0  0  0  0
    0.0000   -3.6073    0.0000 C   0  0  0  0  0  0  0  0  0  0  0  0
    0.0000   -5.1073    0.0000 O   0  0  0  0  0  0  0  0  0  0  0  0
    1.2135   -2.7256    0.0000 N   0  0  0  0  0  0  0  0  0  0  0  0
    0.7500   -1.2990    0.0000 C   0  0  0  0  0  0  0  0  0  0  0  0
    1.5000    0.0000    0.0000 C   0  0  0  0  0  0  0  0  0  0  0  0
    0.7500    1.2990    0.0000 C   0  0  0  0  0  0  0  0  0  0  0  0
   -0.7500    1.2990    0.0000 C   0  0  0  0  0  0  0  0  0  0  0  0
   -1.5000    2.5981    0.0000 F   0  0  0  0  0  0  0  0  0  0  0  0
   -1.5000    0.0000    0.0000 C   0  0  0  0  0  0  0  0  0  0  0  0
   -0.7500   -1.2990    0.0000 C   0  0  0  0  0  0  0  0  0  0  0  0
   -4.3223   -5.2665    0.0000 C   0  0  0  0  0  0  0  0  0  0  0  0
   -5.6213   -4.5165    0.0000 C   0  0  0  0  0  0  0  0  0  0  0  0
  1  2  1  0
  2  3  1  0
  3  4  1  0
  4  5  1  0
  3  6  1  0
  6  7  1  0
  7  8  1  0
  8  9  1  0
  9 10  2  0
  9 11  1  0
 11 12  2  0
 12 13  1  0
 12 14  1  0
 14 15  1  0
 15 16  1  0
 16 17  2  3
 17 18  1  0
 18 19  2  0
 18 20  1  0
 20 21  1  0
 21 22  2  0
 22 23  1  0
 23 24  2  0
 24 25  1  0
 24 26  1  0
 26 27  2  0
 15 28  2  0
 28 29  1  0
 28 11  1  0
 27 17  1  0
 27 21  1  0
M  END
>  <Molecule>  (647) 
CHEMBL1990885

>  <Standard Type>  (647) 
Ki

>  <Standard Relation>  (647) 
>

>  <Standard Value>  (647) 
3981.07

>  <Standard Units>  (647) 
nM

>  <pChEMBL Value>  (647) 
nan

>  <Comment>  (647) 
inactive

>  <Compound Key>  (647) 
SID103905670

>  <Assay>  (647) 
CHEMBL1963742

>  <Assay Description>  (647) 
PUBCHEM_BIOASSAY: Navigating the Kinome. (Class of assay: other) Panel member name: JAK3

>  <BAO Format>  (647) 
assay format

>  <Target>  (647) 
CHEMBL2148

>  <Target Pref. Name>  (647) 
Tyrosine-protein kinase JAK3

>  <Target Organism>  (647) 
Homo sapiens

>  <Target Type>  (647) 
SINGLE PROTEIN

>  <Document>  (647) 
CHEMBL1201862

>  <Source>  (647) 
PubChem BioAssays

>  <Max Phase>  (647) 
0

>  <#Ro5 Violations>  (647) 
0

>  <Molecular Weight>  (647) 
398.48

>  <Ligand Efficiency BEI>  (647) 
nan

>  <Ligand Efficiency LE>  (647) 
nan

>  <Ligand Efficiency LLE>  (647) 
nan

>  <Ligand Efficiency SEI>  (647) 
nan

>  <ALogP>  (647) 
3.33

>  <Assay Organism>  (647) 
nan

>  <Assay Tissue ChEMBL ID>  (647) 
nan

>  <Assay Tissue Name>  (647) 
nan

>  <Assay Cell Type>  (647) 
nan

>  <Assay Subcellular Fraction>  (647) 
nan

>  <Organism Tax ID>  (647) 
9606

>  <BAO Format ID>  (647) 
BAO_0000019

>  <Published Type>  (647) 
nan

>  <Published Relation>  (647) 
nan

>  <Published Value>  (647) 
nan

>  <Published Units>  (647) 
nan

>  <Canonical Smiles>  (647) 
CCN(CC)CCNC(=O)c1c(C)[nH]c(C=C2C(=O)Nc3ccc(F)cc23)c1C

>  <Data Validity Comment>  (647) 
nan

>  <Document Journal>  (647) 
nan

>  <Document Year>  (647) 
nan

>  <SRC ID>  (647) 
7

>  <UO Units>  (647) 
UO_0000065

>  <Potential Duplicate>  (647) 
False

>  <Class>  (647) 
0

$$$$

     RDKit          2D

 12 13  0  0  0  0  0  0  0  0999 V2000
   -4.6883    2.2939    0.0000 N   0  0  0  0  0  0  0  0  0  0  0  0
   -3.5736    1.2902    0.0000 C   0  0  0  0  0  0  0  0  0  0  0  0
   -3.8855   -0.1771    0.0000 O   0  0  0  0  0  0  0  0  0  0  0  0
   -2.1470    1.7537    0.0000 C   0  0  0  0  0  0  0  0  0  0  0  0
   -1.8351    3.2209    0.0000 C   0  0  0  0  0  0  0  0  0  0  0  0
   -0.4086    3.6844    0.0000 C   0  0  0  0  0  0  0  0  0  0  0  0
    0.7062    2.6807    0.0000 C   0  0  0  0  0  0  0  0  0  0  0  0
    0.3943    1.2135    0.0000 C   0  0  0  0  0  0  0  0  0  0  0  0
    1.2760    0.0000    0.0000 C   0  0  0  0  0  0  0  0  0  0  0  0
    0.3943   -1.2135    0.0000 N   0  0  0  0  0  0  0  0  0  0  0  0
   -1.0323   -0.7500    0.0000 N   0  0  0  0  0  0  0  0  0  0  0  0
   -1.0323    0.7500    0.0000 C   0  0  0  0  0  0  0  0  0  0  0  0
  1  2  1  0
  2  3  2  0
  2  4  1  0
  4  5  2  0
  5  6  1  0
  6  7  2  0
  7  8  1  0
  8  9  1  0
  9 10  2  0
 10 11  1  0
 11 12  1  0
 12  4  1  0
 12  8  2  0
M  END
>  <Molecule>  (648) 
CHEMBL451401

>  <Standard Type>  (648) 
Ki

>  <Standard Relation>  (648) 
>

>  <Standard Value>  (648) 
15848.93

>  <Standard Units>  (648) 
nM

>  <pChEMBL Value>  (648) 
nan

>  <Comment>  (648) 
inactive

>  <Compound Key>  (648) 
SID103904656

>  <Assay>  (648) 
CHEMBL1963742

>  <Assay Description>  (648) 
PUBCHEM_BIOASSAY: Navigating the Kinome. (Class of assay: other) Panel member name: JAK3

>  <BAO Format>  (648) 
assay format

>  <Target>  (648) 
CHEMBL2148

>  <Target Pref. Name>  (648) 
Tyrosine-protein kinase JAK3

>  <Target Organism>  (648) 
Homo sapiens

>  <Target Type>  (648) 
SINGLE PROTEIN

>  <Document>  (648) 
CHEMBL1201862

>  <Source>  (648) 
PubChem BioAssays

>  <Max Phase>  (648) 
0

>  <#Ro5 Violations>  (648) 
0

>  <Molecular Weight>  (648) 
161.16

>  <Ligand Efficiency BEI>  (648) 
nan

>  <Ligand Efficiency LE>  (648) 
nan

>  <Ligand Efficiency LLE>  (648) 
nan

>  <Ligand Efficiency SEI>  (648) 
nan

>  <ALogP>  (648) 
0.66

>  <Assay Organism>  (648) 
nan

>  <Assay Tissue ChEMBL ID>  (648) 
nan

>  <Assay Tissue Name>  (648) 
nan

>  <Assay Cell Type>  (648) 
nan

>  <Assay Subcellular Fraction>  (648) 
nan

>  <Organism Tax ID>  (648) 
9606

>  <BAO Format ID>  (648) 
BAO_0000019

>  <Published Type>  (648) 
nan

>  <Published Relation>  (648) 
nan

>  <Published Value>  (648) 
nan

>  <Published Units>  (648) 
nan

>  <Canonical Smiles>  (648) 
NC(=O)c1cccc2cn[nH]c12

>  <Data Validity Comment>  (648) 
nan

>  <Document Journal>  (648) 
nan

>  <Document Year>  (648) 
nan

>  <SRC ID>  (648) 
7

>  <UO Units>  (648) 
UO_0000065

>  <Potential Duplicate>  (648) 
False

>  <Class>  (648) 
0

$$$$

     RDKit          2D

 34 38  0  0  0  0  0  0  0  0999 V2000
   -2.3313   -7.5000    0.0000 C   0  0  0  0  0  0  0  0  0  0  0  0
   -2.3313   -6.0000    0.0000 C   0  0  0  0  0  0  0  0  0  0  0  0
   -3.6304   -5.2500    0.0000 C   0  0  0  0  0  0  0  0  0  0  0  0
   -3.6304   -3.7500    0.0000 C   0  0  0  0  0  0  0  0  0  0  0  0
   -2.3313   -3.0000    0.0000 C   0  0  0  0  0  0  0  0  0  0  0  0
   -1.0323   -3.7500    0.0000 C   0  0  0  0  0  0  0  0  0  0  0  0
   -1.0323   -5.2500    0.0000 N   0  0  0  0  0  0  0  0  0  0  0  0
   -2.3313   -1.5000    0.0000 C   0  0  0  0  0  0  0  0  0  0  0  0
   -3.6304   -0.7500    0.0000 C   0  0  0  0  0  0  0  0  0  0  0  0
   -3.6304    0.7500    0.0000 N   0  0  0  0  0  0  0  0  0  0  0  0
   -2.3313    1.5000    0.0000 C   0  0  0  0  0  0  0  0  0  0  0  0
   -2.3313    3.0000    0.0000 N   0  0  0  0  0  0  0  0  0  0  0  0
   -1.0323    0.7500    0.0000 C   0  0  0  0  0  0  0  0  0  0  0  0
    0.3943    1.2135    0.0000 C   0  0  0  0  0  0  0  0  0  0  0  0
    1.2760    0.0000    0.0000 C   0  0  0  0  0  0  0  0  0  0  0  0
    0.3943   -1.2135    0.0000 S   0  0  0  0  0  0  0  0  0  0  0  0
   -1.0323   -0.7500    0.0000 C   0  0  0  0  0  0  0  0  0  0  0  0
    0.8578    2.6401    0.0000 C   0  0  0  0  0  0  0  0  0  0  0  0
    2.3250    2.9520    0.0000 C   0  0  0  0  0  0  0  0  0  0  0  0
    2.7886    4.3786    0.0000 C   0  0  0  0  0  0  0  0  0  0  0  0
    1.7849    5.4933    0.0000 C   0  0  0  0  0  0  0  0  0  0  0  0
    2.2484    6.9199    0.0000 N   0  0  0  0  0  0  0  0  0  0  0  0
    3.7156    7.2317    0.0000 C   0  0  0  0  0  0  0  0  0  0  0  0
    4.7193    6.1170    0.0000 O   0  0  0  0  0  0  0  0  0  0  0  0
    4.1791    8.6583    0.0000 N   0  0  0  0  0  0  0  0  0  0  0  0
    5.6464    8.9702    0.0000 C   0  0  0  0  0  0  0  0  0  0  0  0
    6.6501    7.8555    0.0000 C   0  0  0  0  0  0  0  0  0  0  0  0
    8.1173    8.1673    0.0000 C   0  0  0  0  0  0  0  0  0  0  0  0
    8.5808    9.5939    0.0000 C   0  0  0  0  0  0  0  0  0  0  0  0
    7.5771   10.7086    0.0000 C   0  0  0  0  0  0  0  0  0  0  0  0
    8.0406   12.1352    0.0000 F   0  0  0  0  0  0  0  0  0  0  0  0
    6.1099   10.3968    0.0000 C   0  0  0  0  0  0  0  0  0  0  0  0
    0.3177    5.1814    0.0000 C   0  0  0  0  0  0  0  0  0  0  0  0
   -0.1459    3.7548    0.0000 C   0  0  0  0  0  0  0  0  0  0  0  0
  1  2  1  0
  2  3  2  0
  3  4  1  0
  4  5  2  0
  5  6  1  0
  6  7  2  0
  5  8  1  0
  8  9  2  0
  9 10  1  0
 10 11  2  0
 11 12  1  0
 11 13  1  0
 13 14  1  0
 14 15  2  0
 15 16  1  0
 16 17  1  0
 14 18  1  0
 18 19  2  0
 19 20  1  0
 20 21  2  0
 21 22  1  0
 22 23  1  0
 23 24  2  0
 23 25  1  0
 25 26  1  0
 26 27  2  0
 27 28  1  0
 28 29  2  0
 29 30  1  0
 30 31  1  0
 30 32  2  0
 21 33  1  0
 33 34  2  0
  7  2  1  0
 17  8  1  0
 17 13  2  0
 34 18  1  0
 32 26  1  0
M  END
>  <Molecule>  (649) 
CHEMBL1988075

>  <Standard Type>  (649) 
Ki

>  <Standard Relation>  (649) 
>

>  <Standard Value>  (649) 
1584.89

>  <Standard Units>  (649) 
nM

>  <pChEMBL Value>  (649) 
nan

>  <Comment>  (649) 
inactive

>  <Compound Key>  (649) 
SID103904287

>  <Assay>  (649) 
CHEMBL1963742

>  <Assay Description>  (649) 
PUBCHEM_BIOASSAY: Navigating the Kinome. (Class of assay: other) Panel member name: JAK3

>  <BAO Format>  (649) 
assay format

>  <Target>  (649) 
CHEMBL2148

>  <Target Pref. Name>  (649) 
Tyrosine-protein kinase JAK3

>  <Target Organism>  (649) 
Homo sapiens

>  <Target Type>  (649) 
SINGLE PROTEIN

>  <Document>  (649) 
CHEMBL1201862

>  <Source>  (649) 
PubChem BioAssays

>  <Max Phase>  (649) 
0

>  <#Ro5 Violations>  (649) 
1

>  <Molecular Weight>  (649) 
469.55

>  <Ligand Efficiency BEI>  (649) 
nan

>  <Ligand Efficiency LE>  (649) 
nan

>  <Ligand Efficiency LLE>  (649) 
nan

>  <Ligand Efficiency SEI>  (649) 
nan

>  <ALogP>  (649) 
6.7

>  <Assay Organism>  (649) 
nan

>  <Assay Tissue ChEMBL ID>  (649) 
nan

>  <Assay Tissue Name>  (649) 
nan

>  <Assay Cell Type>  (649) 
nan

>  <Assay Subcellular Fraction>  (649) 
nan

>  <Organism Tax ID>  (649) 
9606

>  <BAO Format ID>  (649) 
BAO_0000019

>  <Published Type>  (649) 
nan

>  <Published Relation>  (649) 
nan

>  <Published Value>  (649) 
nan

>  <Published Units>  (649) 
nan

>  <Canonical Smiles>  (649) 
Cc1ccc(cn1)c2cnc(N)c3c(csc23)c4ccc(NC(=O)Nc5cccc(F)c5)cc4

>  <Data Validity Comment>  (649) 
nan

>  <Document Journal>  (649) 
nan

>  <Document Year>  (649) 
nan

>  <SRC ID>  (649) 
7

>  <UO Units>  (649) 
UO_0000065

>  <Potential Duplicate>  (649) 
False

>  <Class>  (649) 
0

$$$$

     RDKit          2D

 28 31  0  0  0  0  0  0  0  0999 V2000
    3.0000    0.0000    0.0000 C   0  0  0  0  0  0  0  0  0  0  0  0
    1.5000    0.0000    0.0000 N   0  0  0  0  0  0  0  0  0  0  0  0
    0.7500   -1.2990    0.0000 C   0  0  0  0  0  0  0  0  0  0  0  0
   -0.7500   -1.2990    0.0000 C   0  0  0  0  0  0  0  0  0  0  0  0
   -1.5000    0.0000    0.0000 N   0  0  0  0  0  0  0  0  0  0  0  0
   -0.7500    1.2990    0.0000 C   0  0  0  0  0  0  0  0  0  0  0  0
    0.7500    1.2990    0.0000 C   0  0  0  0  0  0  0  0  0  0  0  0
   -3.0000    0.0000    0.0000 C   0  0  0  0  0  0  0  0  0  0  0  0
   -3.7500    1.2990    0.0000 C   0  0  0  0  0  0  0  0  0  0  0  0
   -5.2500    1.2990    0.0000 C   0  0  0  0  0  0  0  0  0  0  0  0
   -6.0000    2.5981    0.0000 N   0  0  0  0  0  0  0  0  0  0  0  0
   -5.2500    3.8971    0.0000 C   0  0  0  0  0  0  0  0  0  0  0  0
   -5.8601    5.2674    0.0000 C   0  0  0  0  0  0  0  0  0  0  0  0
   -4.7454    6.2711    0.0000 C   0  0  0  0  0  0  0  0  0  0  0  0
   -4.9022    7.7629    0.0000 C   0  0  0  0  0  0  0  0  0  0  0  0
   -3.4463    5.5211    0.0000 N   0  0  0  0  0  0  0  0  0  0  0  0
   -3.7582    4.0539    0.0000 N   0  0  0  0  0  0  0  0  0  0  0  0
   -6.0000    0.0000    0.0000 N   0  0  0  0  0  0  0  0  0  0  0  0
   -5.2500   -1.2990    0.0000 C   0  0  0  0  0  0  0  0  0  0  0  0
   -6.0000   -2.5981    0.0000 C   0  0  0  0  0  0  0  0  0  0  0  0
   -7.5000   -2.5981    0.0000 C   0  0  0  0  0  0  0  0  0  0  0  0
   -8.2500   -3.8971    0.0000 C   0  0  0  0  0  0  0  0  0  0  0  0
   -9.7500   -3.8971    0.0000 C   0  0  0  0  0  0  0  0  0  0  0  0
  -10.5000   -5.1962    0.0000 C   0  0  0  0  0  0  0  0  0  0  0  0
   -9.7500   -6.4952    0.0000 C   0  0  0  0  0  0  0  0  0  0  0  0
   -8.2500   -6.4952    0.0000 C   0  0  0  0  0  0  0  0  0  0  0  0
   -7.5000   -5.1962    0.0000 C   0  0  0  0  0  0  0  0  0  0  0  0
   -3.7500   -1.2990    0.0000 N   0  0  0  0  0  0  0  0  0  0  0  0
  1  2  1  0
  2  3  1  0
  3  4  1  0
  4  5  1  0
  5  6  1  0
  6  7  1  0
  5  8  1  0
  8  9  2  0
  9 10  1  0
 10 11  1  0
 11 12  1  0
 12 13  1  0
 13 14  2  0
 14 15  1  0
 14 16  1  0
 16 17  1  0
 10 18  2  0
 18 19  1  0
 19 20  1  0
 20 21  2  3
 21 22  1  0
 22 23  2  0
 23 24  1  0
 24 25  2  0
 25 26  1  0
 26 27  2  0
 19 28  2  0
  7  2  1  0
 28  8  1  0
 17 12  2  0
 27 22  1  0
M  END
>  <Molecule>  (650) 
CHEMBL1983923

>  <Standard Type>  (650) 
Ki

>  <Standard Relation>  (650) 
=

>  <Standard Value>  (650) 
316.23

>  <Standard Units>  (650) 
nM

>  <pChEMBL Value>  (650) 
6.5

>  <Comment>  (650) 
active

>  <Compound Key>  (650) 
SID103905558

>  <Assay>  (650) 
CHEMBL1963742

>  <Assay Description>  (650) 
PUBCHEM_BIOASSAY: Navigating the Kinome. (Class of assay: other) Panel member name: JAK3

>  <BAO Format>  (650) 
assay format

>  <Target>  (650) 
CHEMBL2148

>  <Target Pref. Name>  (650) 
Tyrosine-protein kinase JAK3

>  <Target Organism>  (650) 
Homo sapiens

>  <Target Type>  (650) 
SINGLE PROTEIN

>  <Document>  (650) 
CHEMBL1201862

>  <Source>  (650) 
PubChem BioAssays

>  <Max Phase>  (650) 
0

>  <#Ro5 Violations>  (650) 
0

>  <Molecular Weight>  (650) 
375.48

>  <Ligand Efficiency BEI>  (650) 
nan

>  <Ligand Efficiency LE>  (650) 
nan

>  <Ligand Efficiency LLE>  (650) 
nan

>  <Ligand Efficiency SEI>  (650) 
nan

>  <ALogP>  (650) 
3.17

>  <Assay Organism>  (650) 
nan

>  <Assay Tissue ChEMBL ID>  (650) 
nan

>  <Assay Tissue Name>  (650) 
nan

>  <Assay Cell Type>  (650) 
nan

>  <Assay Subcellular Fraction>  (650) 
nan

>  <Organism Tax ID>  (650) 
9606

>  <BAO Format ID>  (650) 
BAO_0000019

>  <Published Type>  (650) 
nan

>  <Published Relation>  (650) 
nan

>  <Published Value>  (650) 
nan

>  <Published Units>  (650) 
nan

>  <Canonical Smiles>  (650) 
CN1CCN(CC1)c2cc(Nc3cc(C)[nH]n3)nc(C=Cc4ccccc4)n2

>  <Data Validity Comment>  (650) 
nan

>  <Document Journal>  (650) 
nan

>  <Document Year>  (650) 
nan

>  <SRC ID>  (650) 
7

>  <UO Units>  (650) 
UO_0000065

>  <Potential Duplicate>  (650) 
False

>  <Class>  (650) 
1

$$$$

     RDKit          2D

 25 27  0  0  0  0  0  0  0  0999 V2000
    3.0000    0.0000    0.0000 F   0  0  0  0  0  0  0  0  0  0  0  0
    1.5000    0.0000    0.0000 C   0  0  0  0  0  0  0  0  0  0  0  0
    0.7500   -1.2990    0.0000 C   0  0  0  0  0  0  0  0  0  0  0  0
   -0.7500   -1.2990    0.0000 C   0  0  0  0  0  0  0  0  0  0  0  0
   -1.5000    0.0000    0.0000 C   0  0  0  0  0  0  0  0  0  0  0  0
   -3.0000    0.0000    0.0000 N   0  0  0  0  0  0  0  0  0  0  0  0
   -3.7500    1.2990    0.0000 C   0  0  0  0  0  0  0  0  0  0  0  0
   -3.0000    2.5981    0.0000 C   0  0  0  0  0  0  0  0  0  0  0  0
   -1.5000    2.5981    0.0000 C   0  0  0  0  0  0  0  0  0  0  0  0
   -0.7500    3.8971    0.0000 N   0  0  0  0  0  0  0  0  0  0  0  0
   -1.5000    5.1962    0.0000 C   0  0  0  0  0  0  0  0  0  0  0  0
   -3.0000    5.1962    0.0000 O   0  0  0  0  0  0  0  0  0  0  0  0
   -0.7500    6.4952    0.0000 N   0  0  0  0  0  0  0  0  0  0  0  0
   -1.5000    7.7942    0.0000 C   0  0  0  0  0  0  0  0  0  0  0  0
   -0.7500    9.0933    0.0000 C   0  0  0  0  0  0  0  0  0  0  0  0
   -1.5000   10.3923    0.0000 C   0  0  0  0  0  0  0  0  0  0  0  0
   -3.0000   10.3923    0.0000 C   0  0  0  0  0  0  0  0  0  0  0  0
   -3.7500    9.0933    0.0000 C   0  0  0  0  0  0  0  0  0  0  0  0
   -3.0000    7.7942    0.0000 N   0  0  0  0  0  0  0  0  0  0  0  0
   -5.2500    9.0933    0.0000 C   0  0  0  0  0  0  0  0  0  0  0  0
   -6.7500    9.0933    0.0000 F   0  0  0  0  0  0  0  0  0  0  0  0
   -5.2500   10.5933    0.0000 F   0  0  0  0  0  0  0  0  0  0  0  0
   -5.2500    7.5933    0.0000 F   0  0  0  0  0  0  0  0  0  0  0  0
   -0.7500    1.2990    0.0000 C   0  0  0  0  0  0  0  0  0  0  0  0
    0.7500    1.2990    0.0000 C   0  0  0  0  0  0  0  0  0  0  0  0
  1  2  1  0
  2  3  2  0
  3  4  1  0
  4  5  2  0
  5  6  1  0
  6  7  2  0
  7  8  1  0
  8  9  2  0
  9 10  1  0
 10 11  1  0
 11 12  2  0
 11 13  1  0
 13 14  1  0
 14 15  2  0
 15 16  1  0
 16 17  2  0
 17 18  1  0
 18 19  2  0
 18 20  1  0
 20 21  1  0
 20 22  1  0
 20 23  1  0
  9 24  1  0
 24 25  2  0
 25  2  1  0
 24  5  1  0
 19 14  1  0
M  END
>  <Molecule>  (651) 
CHEMBL2007603

>  <Standard Type>  (651) 
Ki

>  <Standard Relation>  (651) 
>

>  <Standard Value>  (651) 
5011.87

>  <Standard Units>  (651) 
nM

>  <pChEMBL Value>  (651) 
nan

>  <Comment>  (651) 
inactive

>  <Compound Key>  (651) 
SID103904874

>  <Assay>  (651) 
CHEMBL1963742

>  <Assay Description>  (651) 
PUBCHEM_BIOASSAY: Navigating the Kinome. (Class of assay: other) Panel member name: JAK3

>  <BAO Format>  (651) 
assay format

>  <Target>  (651) 
CHEMBL2148

>  <Target Pref. Name>  (651) 
Tyrosine-protein kinase JAK3

>  <Target Organism>  (651) 
Homo sapiens

>  <Target Type>  (651) 
SINGLE PROTEIN

>  <Document>  (651) 
CHEMBL1201862

>  <Source>  (651) 
PubChem BioAssays

>  <Max Phase>  (651) 
0

>  <#Ro5 Violations>  (651) 
0

>  <Molecular Weight>  (651) 
350.28

>  <Ligand Efficiency BEI>  (651) 
nan

>  <Ligand Efficiency LE>  (651) 
nan

>  <Ligand Efficiency LLE>  (651) 
nan

>  <Ligand Efficiency SEI>  (651) 
nan

>  <ALogP>  (651) 
4.43

>  <Assay Organism>  (651) 
nan

>  <Assay Tissue ChEMBL ID>  (651) 
nan

>  <Assay Tissue Name>  (651) 
nan

>  <Assay Cell Type>  (651) 
nan

>  <Assay Subcellular Fraction>  (651) 
nan

>  <Organism Tax ID>  (651) 
9606

>  <BAO Format ID>  (651) 
BAO_0000019

>  <Published Type>  (651) 
nan

>  <Published Relation>  (651) 
nan

>  <Published Value>  (651) 
nan

>  <Published Units>  (651) 
nan

>  <Canonical Smiles>  (651) 
Fc1ccc2nccc(NC(=O)Nc3cccc(n3)C(F)(F)F)c2c1

>  <Data Validity Comment>  (651) 
nan

>  <Document Journal>  (651) 
nan

>  <Document Year>  (651) 
nan

>  <SRC ID>  (651) 
7

>  <UO Units>  (651) 
UO_0000065

>  <Potential Duplicate>  (651) 
False

>  <Class>  (651) 
0

$$$$

     RDKit          2D

 24 26  0  0  0  0  0  0  0  0999 V2000
    3.7500   -1.2990    0.0000 O   0  0  0  0  0  0  0  0  0  0  0  0
    3.0000    0.0000    0.0000 C   0  0  0  0  0  0  0  0  0  0  0  0
    3.7500    1.2990    0.0000 O   0  0  0  0  0  0  0  0  0  0  0  0
    1.5000    0.0000    0.0000 C   0  0  0  0  0  0  0  0  0  0  0  0
    0.7500   -1.2990    0.0000 C   0  0  0  0  0  0  0  0  0  0  0  0
   -0.7500   -1.2990    0.0000 C   0  0  0  0  0  0  0  0  0  0  0  0
   -1.5000    0.0000    0.0000 C   0  0  0  0  0  0  0  0  0  0  0  0
   -0.7500    1.2990    0.0000 C   0  0  0  0  0  0  0  0  0  0  0  0
    0.7500    1.2990    0.0000 C   0  0  0  0  0  0  0  0  0  0  0  0
    1.5000    2.5981    0.0000 N   0  0  0  0  0  0  0  0  0  0  0  0
    0.7500    3.8971    0.0000 C   0  0  0  0  0  0  0  0  0  0  0  0
    1.5000    5.1962    0.0000 C   0  0  0  0  0  0  0  0  0  0  0  0
    0.7500    6.4952    0.0000 C   0  0  0  0  0  0  0  0  0  0  0  0
   -0.7500    6.4952    0.0000 N   0  0  0  0  0  0  0  0  0  0  0  0
   -1.5000    5.1962    0.0000 C   0  0  0  0  0  0  0  0  0  0  0  0
   -3.0000    5.1962    0.0000 N   0  0  0  0  0  0  0  0  0  0  0  0
   -3.7500    6.4952    0.0000 C   0  0  0  0  0  0  0  0  0  0  0  0
   -3.0000    7.7942    0.0000 C   0  0  0  0  0  0  0  0  0  0  0  0
   -3.7500    9.0933    0.0000 C   0  0  0  0  0  0  0  0  0  0  0  0
   -5.2500    9.0933    0.0000 C   0  0  0  0  0  0  0  0  0  0  0  0
   -6.0000    7.7942    0.0000 C   0  0  0  0  0  0  0  0  0  0  0  0
   -7.5000    7.7942    0.0000 F   0  0  0  0  0  0  0  0  0  0  0  0
   -5.2500    6.4952    0.0000 C   0  0  0  0  0  0  0  0  0  0  0  0
   -0.7500    3.8971    0.0000 N   0  0  0  0  0  0  0  0  0  0  0  0
  1  2  1  0
  2  3  2  0
  2  4  1  0
  4  5  2  0
  5  6  1  0
  6  7  2  0
  7  8  1  0
  8  9  2  0
  9 10  1  0
 10 11  1  0
 11 12  2  0
 12 13  1  0
 13 14  2  0
 14 15  1  0
 15 16  1  0
 16 17  1  0
 17 18  2  0
 18 19  1  0
 19 20  2  0
 20 21  1  0
 21 22  1  0
 21 23  2  0
 15 24  2  0
  9  4  1  0
 24 11  1  0
 23 17  1  0
M  END
>  <Molecule>  (652) 
CHEMBL243298

>  <Standard Type>  (652) 
Ki

>  <Standard Relation>  (652) 
=

>  <Standard Value>  (652) 
79.43

>  <Standard Units>  (652) 
nM

>  <pChEMBL Value>  (652) 
7.1

>  <Comment>  (652) 
active

>  <Compound Key>  (652) 
SID103904614

>  <Assay>  (652) 
CHEMBL1963742

>  <Assay Description>  (652) 
PUBCHEM_BIOASSAY: Navigating the Kinome. (Class of assay: other) Panel member name: JAK3

>  <BAO Format>  (652) 
assay format

>  <Target>  (652) 
CHEMBL2148

>  <Target Pref. Name>  (652) 
Tyrosine-protein kinase JAK3

>  <Target Organism>  (652) 
Homo sapiens

>  <Target Type>  (652) 
SINGLE PROTEIN

>  <Document>  (652) 
CHEMBL1201862

>  <Source>  (652) 
PubChem BioAssays

>  <Max Phase>  (652) 
0

>  <#Ro5 Violations>  (652) 
0

>  <Molecular Weight>  (652) 
324.32

>  <Ligand Efficiency BEI>  (652) 
nan

>  <Ligand Efficiency LE>  (652) 
nan

>  <Ligand Efficiency LLE>  (652) 
nan

>  <Ligand Efficiency SEI>  (652) 
nan

>  <ALogP>  (652) 
3.8

>  <Assay Organism>  (652) 
nan

>  <Assay Tissue ChEMBL ID>  (652) 
nan

>  <Assay Tissue Name>  (652) 
nan

>  <Assay Cell Type>  (652) 
nan

>  <Assay Subcellular Fraction>  (652) 
nan

>  <Organism Tax ID>  (652) 
9606

>  <BAO Format ID>  (652) 
BAO_0000019

>  <Published Type>  (652) 
nan

>  <Published Relation>  (652) 
nan

>  <Published Value>  (652) 
nan

>  <Published Units>  (652) 
nan

>  <Canonical Smiles>  (652) 
OC(=O)c1ccccc1Nc2ccnc(Nc3cccc(F)c3)n2

>  <Data Validity Comment>  (652) 
nan

>  <Document Journal>  (652) 
nan

>  <Document Year>  (652) 
nan

>  <SRC ID>  (652) 
7

>  <UO Units>  (652) 
UO_0000065

>  <Potential Duplicate>  (652) 
False

>  <Class>  (652) 
1

$$$$

     RDKit          2D

 43 47  0  0  0  0  0  0  0  0999 V2000
    3.0000    0.0000    0.0000 C   0  0  0  0  0  0  0  0  0  0  0  0
    1.5000    0.0000    0.0000 N   0  0  0  0  0  0  0  0  0  0  0  0
    0.7500   -1.2990    0.0000 C   0  0  0  0  0  0  0  0  0  0  0  0
   -0.7500   -1.2990    0.0000 C   0  0  0  0  0  0  0  0  0  0  0  0
   -1.5000    0.0000    0.0000 C   0  0  0  0  0  0  0  0  0  0  0  0
   -0.7500    1.2990    0.0000 C   0  0  0  0  0  0  0  0  0  0  0  0
   -1.5000    2.5981    0.0000 N   0  0  0  0  0  0  0  0  0  0  0  0
   -0.7500    3.8971    0.0000 C   0  0  0  0  0  0  0  0  0  0  0  0
    0.7500    3.8971    0.0000 C   0  0  0  0  0  0  0  0  0  0  0  0
    1.5000    5.1962    0.0000 C   0  0  0  0  0  0  0  0  0  0  0  0
    0.7500    6.4952    0.0000 C   0  0  0  0  0  0  0  0  0  0  0  0
   -0.7500    6.4952    0.0000 C   0  0  0  0  0  0  0  0  0  0  0  0
   -1.5000    5.1962    0.0000 N   0  0  0  0  0  0  0  0  0  0  0  0
    1.5000    7.7942    0.0000 C   0  0  0  0  0  0  0  0  0  0  0  0
    0.7500    9.0933    0.0000 O   0  0  0  0  0  0  0  0  0  0  0  0
    3.0000    7.7942    0.0000 N   0  0  0  0  0  0  0  0  0  0  0  0
    3.7500    6.4952    0.0000 C   0  0  0  0  0  0  0  0  0  0  0  0
    5.2500    6.4952    0.0000 C   0  0  0  0  0  0  0  0  0  0  0  0
    6.0000    7.7942    0.0000 O   0  0  0  0  0  0  0  0  0  0  0  0
    5.2500    9.0933    0.0000 C   0  0  0  0  0  0  0  0  0  0  0  0
    3.7500    9.0933    0.0000 C   0  0  0  0  0  0  0  0  0  0  0  0
    0.7500    1.2990    0.0000 C   0  0  0  0  0  0  0  0  0  0  0  0
    1.5000    2.5981    0.0000 O   0  0  0  0  0  0  0  0  0  0  0  0
   -1.5000   -2.5981    0.0000 C   0  0  0  0  0  0  0  0  0  0  0  0
   -3.0000   -2.5981    0.0000 C   0  0  0  0  0  0  0  0  0  0  0  0
   -3.7500   -3.8971    0.0000 C   0  0  0  0  0  0  0  0  0  0  0  0
   -3.0000   -5.1962    0.0000 C   0  0  0  0  0  0  0  0  0  0  0  0
   -1.5000   -5.1962    0.0000 C   0  0  0  0  0  0  0  0  0  0  0  0
   -0.7500   -6.4952    0.0000 N   0  0  0  0  0  0  0  0  0  0  0  0
   -1.5000   -7.7942    0.0000 C   0  0  0  0  0  0  0  0  0  0  0  0
   -3.0000   -7.7942    0.0000 O   0  0  0  0  0  0  0  0  0  0  0  0
   -0.7500   -9.0933    0.0000 C   0  0  0  0  0  0  0  0  0  0  0  0
   -1.5000  -10.3923    0.0000 C   0  0  0  0  0  0  0  0  0  0  0  0
   -0.7500  -11.6913    0.0000 C   0  0  0  0  0  0  0  0  0  0  0  0
    0.7500  -11.6913    0.0000 C   0  0  0  0  0  0  0  0  0  0  0  0
    1.5000  -10.3923    0.0000 C   0  0  0  0  0  0  0  0  0  0  0  0
    0.7500   -9.0933    0.0000 C   0  0  0  0  0  0  0  0  0  0  0  0
    1.5000  -12.9904    0.0000 C   0  0  0  0  0  0  0  0  0  0  0  0
    0.2010  -13.7404    0.0000 C   0  0  0  0  0  0  0  0  0  0  0  0
    2.7990  -12.2404    0.0000 C   0  0  0  0  0  0  0  0  0  0  0  0
    2.2500  -14.2894    0.0000 C   0  0  0  0  0  0  0  0  0  0  0  0
   -0.7500   -3.8971    0.0000 C   0  0  0  0  0  0  0  0  0  0  0  0
    0.7500   -3.8971    0.0000 C   0  0  0  0  0  0  0  0  0  0  0  0
  1  2  1  0
  2  3  1  0
  3  4  2  0
  4  5  1  0
  5  6  2  0
  6  7  1  0
  7  8  1  0
  8  9  2  0
  9 10  1  0
 10 11  2  0
 11 12  1  0
 12 13  2  0
 11 14  1  0
 14 15  2  0
 14 16  1  0
 16 17  1  0
 17 18  1  0
 18 19  1  0
 19 20  1  0
 20 21  1  0
  6 22  1  0
 22 23  2  0
  4 24  1  0
 24 25  2  0
 25 26  1  0
 26 27  2  0
 27 28  1  0
 28 29  1  0
 29 30  1  0
 30 31  2  0
 30 32  1  0
 32 33  2  0
 33 34  1  0
 34 35  2  0
 35 36  1  0
 36 37  2  0
 35 38  1  0
 38 39  1  0
 38 40  1  0
 38 41  1  0
 28 42  2  0
 42 43  1  0
 22  2  1  0
 13  8  1  0
 21 16  1  0
 42 24  1  0
 37 32  1  0
M  END
>  <Molecule>  (653) 
CHEMBL1973138

>  <Standard Type>  (653) 
Ki

>  <Standard Relation>  (653) 
>

>  <Standard Value>  (653) 
5011.87

>  <Standard Units>  (653) 
nM

>  <pChEMBL Value>  (653) 
nan

>  <Comment>  (653) 
inactive

>  <Compound Key>  (653) 
SID103905555

>  <Assay>  (653) 
CHEMBL1963742

>  <Assay Description>  (653) 
PUBCHEM_BIOASSAY: Navigating the Kinome. (Class of assay: other) Panel member name: JAK3

>  <BAO Format>  (653) 
assay format

>  <Target>  (653) 
CHEMBL2148

>  <Target Pref. Name>  (653) 
Tyrosine-protein kinase JAK3

>  <Target Organism>  (653) 
Homo sapiens

>  <Target Type>  (653) 
SINGLE PROTEIN

>  <Document>  (653) 
CHEMBL1201862

>  <Source>  (653) 
PubChem BioAssays

>  <Max Phase>  (653) 
0

>  <#Ro5 Violations>  (653) 
2

>  <Molecular Weight>  (653) 
579.7

>  <Ligand Efficiency BEI>  (653) 
nan

>  <Ligand Efficiency LE>  (653) 
nan

>  <Ligand Efficiency LLE>  (653) 
nan

>  <Ligand Efficiency SEI>  (653) 
nan

>  <ALogP>  (653) 
5.52

>  <Assay Organism>  (653) 
nan

>  <Assay Tissue ChEMBL ID>  (653) 
nan

>  <Assay Tissue Name>  (653) 
nan

>  <Assay Cell Type>  (653) 
nan

>  <Assay Subcellular Fraction>  (653) 
nan

>  <Organism Tax ID>  (653) 
9606

>  <BAO Format ID>  (653) 
BAO_0000019

>  <Published Type>  (653) 
nan

>  <Published Relation>  (653) 
nan

>  <Published Value>  (653) 
nan

>  <Published Units>  (653) 
nan

>  <Canonical Smiles>  (653) 
CN1C=C(C=C(Nc2ccc(cn2)C(=O)N3CCOCC3)C1=O)c4cccc(NC(=O)c5ccc(cc5)C(C)(C)C)c4C

>  <Data Validity Comment>  (653) 
nan

>  <Document Journal>  (653) 
nan

>  <Document Year>  (653) 
nan

>  <SRC ID>  (653) 
7

>  <UO Units>  (653) 
UO_0000065

>  <Potential Duplicate>  (653) 
False

>  <Class>  (653) 
0

$$$$

     RDKit          2D

 30 32  0  0  0  0  0  0  0  0999 V2000
   13.7849    2.8025    0.0000 O   0  0  0  0  0  0  0  0  0  0  0  0
   12.6701    3.8062    0.0000 C   0  0  0  0  0  0  0  0  0  0  0  0
   11.2436    3.3427    0.0000 C   0  0  0  0  0  0  0  0  0  0  0  0
   10.1288    4.3464    0.0000 C   0  0  0  0  0  0  0  0  0  0  0  0
    8.7023    3.8829    0.0000 C   0  0  0  0  0  0  0  0  0  0  0  0
    8.3904    2.4157    0.0000 C   0  0  0  0  0  0  0  0  0  0  0  0
    6.9638    1.9521    0.0000 C   0  0  0  0  0  0  0  0  0  0  0  0
    7.5739    0.5818    0.0000 O   0  0  0  0  0  0  0  0  0  0  0  0
    7.5739   -0.9182    0.0000 C   0  0  0  0  0  0  0  0  0  0  0  0
    6.9638   -2.2885    0.0000 C   0  0  0  0  0  0  0  0  0  0  0  0
    5.8491   -3.2922    0.0000 C   0  0  0  0  0  0  0  0  0  0  0  0
    4.4225   -3.7557    0.0000 C   0  0  0  0  0  0  0  0  0  0  0  0
    2.9307   -3.5989    0.0000 C   0  0  0  0  0  0  0  0  0  0  0  0
    1.6317   -2.8489    0.0000 O   0  0  0  0  0  0  0  0  0  0  0  0
    0.7500   -1.2990    0.0000 C   0  0  0  0  0  0  0  0  0  0  0  0
    1.5000    0.0000    0.0000 N   0  0  0  0  0  0  0  0  0  0  0  0
    0.7500    1.2990    0.0000 C   0  0  0  0  0  0  0  0  0  0  0  0
    1.6317    2.5126    0.0000 N   0  0  0  0  0  0  0  0  0  0  0  0
    2.9307    3.2626    0.0000 C   0  0  0  0  0  0  0  0  0  0  0  0
    2.4672    4.6891    0.0000 O   0  0  0  0  0  0  0  0  0  0  0  0
    4.4225    3.4194    0.0000 N   0  0  0  0  0  0  0  0  0  0  0  0
    5.8491    2.9558    0.0000 C   0  0  0  0  0  0  0  0  0  0  0  0
    6.1610    4.4231    0.0000 C   0  0  0  0  0  0  0  0  0  0  0  0
    7.5875    4.8866    0.0000 C   0  0  0  0  0  0  0  0  0  0  0  0
    7.8994    6.3538    0.0000 Cl  0  0  0  0  0  0  0  0  0  0  0  0
   -0.7500    1.2990    0.0000 C   0  0  0  0  0  0  0  0  0  0  0  0
   -1.5000    0.0000    0.0000 N   0  0  0  0  0  0  0  0  0  0  0  0
   -0.7500   -1.2990    0.0000 C   0  0  0  0  0  0  0  0  0  0  0  0
   -1.5000   -2.5981    0.0000 C   0  0  0  0  0  0  0  0  0  0  0  0
   -2.2500   -3.8971    0.0000 N   0  0  0  0  0  0  0  0  0  0  0  0
  1  2  1  0
  2  3  1  0
  3  4  1  0
  4  5  1  0
  5  6  2  0
  6  7  1  0
  7  8  1  0
  8  9  1  0
  9 10  1  0
 10 11  1  0
 11 12  1  0
 12 13  1  0
 13 14  1  0
 14 15  1  0
 15 16  1  0
 16 17  2  0
 17 18  1  0
 18 19  1  0
 19 20  2  0
 19 21  1  0
 21 22  1  0
 22 23  1  0
 23 24  2  0
 24 25  1  0
 17 26  1  0
 26 27  2  0
 27 28  1  0
 28 29  1  0
 29 30  3  0
 24  5  1  0
 22  7  2  0
 28 15  2  0
M  END
>  <Molecule>  (654) 
CHEMBL223367

>  <Standard Type>  (654) 
Ki

>  <Standard Relation>  (654) 
>

>  <Standard Value>  (654) 
1584.89

>  <Standard Units>  (654) 
nM

>  <pChEMBL Value>  (654) 
nan

>  <Comment>  (654) 
inactive

>  <Compound Key>  (654) 
SID103905150

>  <Assay>  (654) 
CHEMBL1963742

>  <Assay Description>  (654) 
PUBCHEM_BIOASSAY: Navigating the Kinome. (Class of assay: other) Panel member name: JAK3

>  <BAO Format>  (654) 
assay format

>  <Target>  (654) 
CHEMBL2148

>  <Target Pref. Name>  (654) 
Tyrosine-protein kinase JAK3

>  <Target Organism>  (654) 
Homo sapiens

>  <Target Type>  (654) 
SINGLE PROTEIN

>  <Document>  (654) 
CHEMBL1201862

>  <Source>  (654) 
PubChem BioAssays

>  <Max Phase>  (654) 
0

>  <#Ro5 Violations>  (654) 
0

>  <Molecular Weight>  (654) 
431.88

>  <Ligand Efficiency BEI>  (654) 
nan

>  <Ligand Efficiency LE>  (654) 
nan

>  <Ligand Efficiency LLE>  (654) 
nan

>  <Ligand Efficiency SEI>  (654) 
nan

>  <ALogP>  (654) 
3.51

>  <Assay Organism>  (654) 
nan

>  <Assay Tissue ChEMBL ID>  (654) 
nan

>  <Assay Tissue Name>  (654) 
nan

>  <Assay Cell Type>  (654) 
nan

>  <Assay Subcellular Fraction>  (654) 
nan

>  <Organism Tax ID>  (654) 
9606

>  <BAO Format ID>  (654) 
BAO_0000019

>  <Published Type>  (654) 
nan

>  <Published Relation>  (654) 
nan

>  <Published Value>  (654) 
nan

>  <Published Units>  (654) 
nan

>  <Canonical Smiles>  (654) 
OCCCc1cc2OCCCCCOc3nc(NC(=O)Nc2cc1Cl)cnc3C#N

>  <Data Validity Comment>  (654) 
nan

>  <Document Journal>  (654) 
nan

>  <Document Year>  (654) 
nan

>  <SRC ID>  (654) 
7

>  <UO Units>  (654) 
UO_0000065

>  <Potential Duplicate>  (654) 
False

>  <Class>  (654) 
0

$$$$

     RDKit          2D

 29 34  0  0  0  0  0  0  0  0999 V2000
    2.6401   -3.1891    0.0000 C   0  0  0  0  0  0  0  0  0  0  0  0
    1.2135   -2.7256    0.0000 N   0  0  0  0  0  0  0  0  0  0  0  0
    0.7500   -1.2990    0.0000 C   0  0  0  0  0  0  0  0  0  0  0  0
    1.5000    0.0000    0.0000 C   0  0  0  0  0  0  0  0  0  0  0  0
    0.7500    1.2990    0.0000 C   0  0  0  0  0  0  0  0  0  0  0  0
   -0.7500    1.2990    0.0000 C   0  0  0  0  0  0  0  0  0  0  0  0
   -1.5000    0.0000    0.0000 C   0  0  0  0  0  0  0  0  0  0  0  0
   -0.7500   -1.2990    0.0000 C   0  0  0  0  0  0  0  0  0  0  0  0
   -1.2135   -2.7256    0.0000 C   0  0  0  0  0  0  0  0  0  0  0  0
   -2.5838   -3.3357    0.0000 C   0  0  0  0  0  0  0  0  0  0  0  0
   -3.9542   -2.7256    0.0000 C   0  0  0  0  0  0  0  0  0  0  0  0
   -4.2660   -1.2584    0.0000 O   0  0  0  0  0  0  0  0  0  0  0  0
   -4.9579   -3.8403    0.0000 N   0  0  0  0  0  0  0  0  0  0  0  0
   -4.2079   -5.1394    0.0000 C   0  0  0  0  0  0  0  0  0  0  0  0
   -2.7406   -4.8275    0.0000 C   0  0  0  0  0  0  0  0  0  0  0  0
   -1.5271   -5.7092    0.0000 C   0  0  0  0  0  0  0  0  0  0  0  0
   -1.3703   -7.2010    0.0000 C   0  0  0  0  0  0  0  0  0  0  0  0
   -2.3740   -8.3157    0.0000 C   0  0  0  0  0  0  0  0  0  0  0  0
   -1.9105   -9.7423    0.0000 C   0  0  0  0  0  0  0  0  0  0  0  0
   -0.4433  -10.0541    0.0000 C   0  0  0  0  0  0  0  0  0  0  0  0
    0.5604   -8.9394    0.0000 C   0  0  0  0  0  0  0  0  0  0  0  0
    0.0969   -7.5128    0.0000 C   0  0  0  0  0  0  0  0  0  0  0  0
    0.8469   -6.2138    0.0000 N   0  0  0  0  0  0  0  0  0  0  0  0
    2.3387   -6.0570    0.0000 C   0  0  0  0  0  0  0  0  0  0  0  0
    3.2204   -7.2705    0.0000 C   0  0  0  0  0  0  0  0  0  0  0  0
    4.7121   -7.1137    0.0000 C   0  0  0  0  0  0  0  0  0  0  0  0
    6.2039   -6.9569    0.0000 N   0  0  0  0  0  0  0  0  0  0  0  0
   -0.1568   -5.0991    0.0000 C   0  0  0  0  0  0  0  0  0  0  0  0
   -0.0000   -3.6073    0.0000 C   0  0  0  0  0  0  0  0  0  0  0  0
  1  2  1  0
  2  3  1  0
  3  4  2  0
  4  5  1  0
  5  6  2  0
  6  7  1  0
  7  8  2  0
  8  9  1  0
  9 10  2  0
 10 11  1  0
 11 12  2  0
 11 13  1  0
 13 14  1  0
 14 15  1  0
 15 16  2  0
 16 17  1  0
 17 18  2  0
 18 19  1  0
 19 20  2  0
 20 21  1  0
 21 22  2  0
 22 23  1  0
 23 24  1  0
 24 25  1  0
 25 26  1  0
 26 27  3  0
 23 28  1  0
 28 29  2  0
 29  2  1  0
  8  3  1  0
 29  9  1  0
 15 10  1  0
 28 16  1  0
 22 17  1  0
M  END
>  <Molecule>  (655) 
CHEMBL302449

>  <Standard Type>  (655) 
Ki

>  <Standard Relation>  (655) 
=

>  <Standard Value>  (655) 
0.631

>  <Standard Units>  (655) 
nM

>  <pChEMBL Value>  (655) 
9.2

>  <Comment>  (655) 
active

>  <Compound Key>  (655) 
SID103905532

>  <Assay>  (655) 
CHEMBL1963742

>  <Assay Description>  (655) 
PUBCHEM_BIOASSAY: Navigating the Kinome. (Class of assay: other) Panel member name: JAK3

>  <BAO Format>  (655) 
assay format

>  <Target>  (655) 
CHEMBL2148

>  <Target Pref. Name>  (655) 
Tyrosine-protein kinase JAK3

>  <Target Organism>  (655) 
Homo sapiens

>  <Target Type>  (655) 
SINGLE PROTEIN

>  <Document>  (655) 
CHEMBL1201862

>  <Source>  (655) 
PubChem BioAssays

>  <Max Phase>  (655) 
0

>  <#Ro5 Violations>  (655) 
0

>  <Molecular Weight>  (655) 
378.44

>  <Ligand Efficiency BEI>  (655) 
nan

>  <Ligand Efficiency LE>  (655) 
nan

>  <Ligand Efficiency LLE>  (655) 
nan

>  <Ligand Efficiency SEI>  (655) 
nan

>  <ALogP>  (655) 
4.6

>  <Assay Organism>  (655) 
nan

>  <Assay Tissue ChEMBL ID>  (655) 
nan

>  <Assay Tissue Name>  (655) 
nan

>  <Assay Cell Type>  (655) 
nan

>  <Assay Subcellular Fraction>  (655) 
nan

>  <Organism Tax ID>  (655) 
9606

>  <BAO Format ID>  (655) 
BAO_0000019

>  <Published Type>  (655) 
nan

>  <Published Relation>  (655) 
nan

>  <Published Value>  (655) 
nan

>  <Published Units>  (655) 
nan

>  <Canonical Smiles>  (655) 
Cn1c2ccccc2c3c4C(=O)NCc4c5c6ccccc6n(CCC#N)c5c13

>  <Data Validity Comment>  (655) 
nan

>  <Document Journal>  (655) 
nan

>  <Document Year>  (655) 
nan

>  <SRC ID>  (655) 
7

>  <UO Units>  (655) 
UO_0000065

>  <Potential Duplicate>  (655) 
False

>  <Class>  (655) 
1

$$$$

     RDKit          2D

 35 39  0  0  0  0  0  0  0  0999 V2000
    4.7960    2.1491    0.0000 C   0  0  0  0  0  0  0  0  0  0  0  0
    3.3287    1.8373    0.0000 O   0  0  0  0  0  0  0  0  0  0  0  0
    2.3250    2.9520    0.0000 C   0  0  0  0  0  0  0  0  0  0  0  0
    0.8578    2.6401    0.0000 C   0  0  0  0  0  0  0  0  0  0  0  0
   -0.1459    3.7548    0.0000 O   0  0  0  0  0  0  0  0  0  0  0  0
    0.3943    1.2135    0.0000 N   0  0  0  0  0  0  0  0  0  0  0  0
    1.2760    0.0000    0.0000 C   0  0  0  0  0  0  0  0  0  0  0  0
    0.3943   -1.2135    0.0000 C   0  0  0  0  0  0  0  0  0  0  0  0
    0.3943   -2.7135    0.0000 N   0  0  0  0  0  0  0  0  0  0  0  0
   -1.0323   -3.1771    0.0000 N   0  0  0  0  0  0  0  0  0  0  0  0
   -1.9140   -1.9635    0.0000 C   0  0  0  0  0  0  0  0  0  0  0  0
   -3.4140   -1.9635    0.0000 N   0  0  0  0  0  0  0  0  0  0  0  0
   -4.1640   -0.6645    0.0000 C   0  0  0  0  0  0  0  0  0  0  0  0
   -3.4140    0.6346    0.0000 O   0  0  0  0  0  0  0  0  0  0  0  0
   -5.6640   -0.6645    0.0000 C   0  0  0  0  0  0  0  0  0  0  0  0
   -6.4140    0.6346    0.0000 C   0  0  0  0  0  0  0  0  0  0  0  0
   -7.9140    0.6346    0.0000 C   0  0  0  0  0  0  0  0  0  0  0  0
   -8.6640   -0.6645    0.0000 C   0  0  0  0  0  0  0  0  0  0  0  0
   -7.9140   -1.9635    0.0000 C   0  0  0  0  0  0  0  0  0  0  0  0
   -6.4140   -1.9635    0.0000 C   0  0  0  0  0  0  0  0  0  0  0  0
  -10.1640   -0.6645    0.0000 N   0  0  0  0  0  0  0  0  0  0  0  0
  -10.9140    0.6346    0.0000 C   0  0  0  0  0  0  0  0  0  0  0  0
  -12.4140    0.6346    0.0000 C   0  0  0  0  0  0  0  0  0  0  0  0
  -13.1640   -0.6645    0.0000 N   0  0  0  0  0  0  0  0  0  0  0  0
  -14.6640   -0.6645    0.0000 C   0  0  0  0  0  0  0  0  0  0  0  0
  -12.4140   -1.9635    0.0000 C   0  0  0  0  0  0  0  0  0  0  0  0
  -10.9140   -1.9635    0.0000 C   0  0  0  0  0  0  0  0  0  0  0  0
   -1.0323   -0.7500    0.0000 C   0  0  0  0  0  0  0  0  0  0  0  0
   -1.0323    0.7500    0.0000 C   0  0  0  0  0  0  0  0  0  0  0  0
    2.7886    4.3786    0.0000 C   0  0  0  0  0  0  0  0  0  0  0  0
    4.2558    4.6904    0.0000 C   0  0  0  0  0  0  0  0  0  0  0  0
    4.7193    6.1170    0.0000 C   0  0  0  0  0  0  0  0  0  0  0  0
    3.7156    7.2317    0.0000 C   0  0  0  0  0  0  0  0  0  0  0  0
    2.2484    6.9199    0.0000 C   0  0  0  0  0  0  0  0  0  0  0  0
    1.7849    5.4933    0.0000 C   0  0  0  0  0  0  0  0  0  0  0  0
  1  2  1  0
  2  3  1  0
  3  4  1  0
  4  5  2  0
  4  6  1  0
  6  7  1  0
  7  8  1  0
  8  9  1  0
  9 10  1  0
 10 11  2  0
 11 12  1  0
 12 13  1  0
 13 14  2  0
 13 15  1  0
 15 16  2  0
 16 17  1  0
 17 18  2  0
 18 19  1  0
 19 20  2  0
 18 21  1  0
 21 22  1  0
 22 23  1  0
 23 24  1  0
 24 25  1  0
 24 26  1  0
 26 27  1  0
 11 28  1  0
 28 29  1  0
  3 30  1  0
 30 31  2  0
 31 32  1  0
 32 33  2  0
 33 34  1  0
 34 35  2  0
 29  6  1  0
 28  8  2  0
 20 15  1  0
 27 21  1  0
 35 30  1  0
M  END
>  <Molecule>  (656) 
CHEMBL1981047

>  <Standard Type>  (656) 
Ki

>  <Standard Relation>  (656) 
=

>  <Standard Value>  (656) 
501.19

>  <Standard Units>  (656) 
nM

>  <pChEMBL Value>  (656) 
6.3

>  <Comment>  (656) 
active

>  <Compound Key>  (656) 
SID103905608

>  <Assay>  (656) 
CHEMBL1963742

>  <Assay Description>  (656) 
PUBCHEM_BIOASSAY: Navigating the Kinome. (Class of assay: other) Panel member name: JAK3

>  <BAO Format>  (656) 
assay format

>  <Target>  (656) 
CHEMBL2148

>  <Target Pref. Name>  (656) 
Tyrosine-protein kinase JAK3

>  <Target Organism>  (656) 
Homo sapiens

>  <Target Type>  (656) 
SINGLE PROTEIN

>  <Document>  (656) 
CHEMBL1201862

>  <Source>  (656) 
PubChem BioAssays

>  <Max Phase>  (656) 
0

>  <#Ro5 Violations>  (656) 
0

>  <Molecular Weight>  (656) 
474.57

>  <Ligand Efficiency BEI>  (656) 
nan

>  <Ligand Efficiency LE>  (656) 
nan

>  <Ligand Efficiency LLE>  (656) 
nan

>  <Ligand Efficiency SEI>  (656) 
nan

>  <ALogP>  (656) 
2.64

>  <Assay Organism>  (656) 
nan

>  <Assay Tissue ChEMBL ID>  (656) 
nan

>  <Assay Tissue Name>  (656) 
nan

>  <Assay Cell Type>  (656) 
nan

>  <Assay Subcellular Fraction>  (656) 
nan

>  <Organism Tax ID>  (656) 
9606

>  <BAO Format ID>  (656) 
BAO_0000019

>  <Published Type>  (656) 
nan

>  <Published Relation>  (656) 
nan

>  <Published Value>  (656) 
nan

>  <Published Units>  (656) 
nan

>  <Canonical Smiles>  (656) 
COC(C(=O)N1Cc2[nH]nc(NC(=O)c3ccc(cc3)N4CCN(C)CC4)c2C1)c5ccccc5

>  <Data Validity Comment>  (656) 
nan

>  <Document Journal>  (656) 
nan

>  <Document Year>  (656) 
nan

>  <SRC ID>  (656) 
7

>  <UO Units>  (656) 
UO_0000065

>  <Potential Duplicate>  (656) 
False

>  <Class>  (656) 
1

$$$$

     RDKit          2D

 24 26  0  0  0  0  0  0  0  0999 V2000
    3.7500   -6.4952    0.0000 N   0  0  0  0  0  0  0  0  0  0  0  0
    3.0000   -5.1962    0.0000 C   0  0  0  0  0  0  0  0  0  0  0  0
    1.5000   -5.1962    0.0000 C   0  0  0  0  0  0  0  0  0  0  0  0
    0.7500   -3.8971    0.0000 N   0  0  0  0  0  0  0  0  0  0  0  0
    1.5000   -2.5981    0.0000 C   0  0  0  0  0  0  0  0  0  0  0  0
    3.0000   -2.5981    0.0000 O   0  0  0  0  0  0  0  0  0  0  0  0
    0.7500   -1.2990    0.0000 C   0  0  0  0  0  0  0  0  0  0  0  0
    1.5000    0.0000    0.0000 C   0  0  0  0  0  0  0  0  0  0  0  0
    0.7500    1.2990    0.0000 C   0  0  0  0  0  0  0  0  0  0  0  0
   -0.7500    1.2990    0.0000 C   0  0  0  0  0  0  0  0  0  0  0  0
   -1.5000    0.0000    0.0000 C   0  0  0  0  0  0  0  0  0  0  0  0
   -0.7500   -1.2990    0.0000 C   0  0  0  0  0  0  0  0  0  0  0  0
   -1.5000    2.5981    0.0000 C   0  0  0  0  0  0  0  0  0  0  0  0
   -0.7500    3.8971    0.0000 C   0  0  0  0  0  0  0  0  0  0  0  0
   -1.5000    5.1962    0.0000 C   0  0  0  0  0  0  0  0  0  0  0  0
   -3.0000    5.1962    0.0000 N   0  0  0  0  0  0  0  0  0  0  0  0
   -3.7500    3.8971    0.0000 C   0  0  0  0  0  0  0  0  0  0  0  0
   -3.0000    2.5981    0.0000 C   0  0  0  0  0  0  0  0  0  0  0  0
    0.7500   -6.4952    0.0000 C   0  0  0  0  0  0  0  0  0  0  0  0
   -0.7500   -6.4952    0.0000 C   0  0  0  0  0  0  0  0  0  0  0  0
   -1.5000   -7.7942    0.0000 C   0  0  0  0  0  0  0  0  0  0  0  0
   -0.7500   -9.0933    0.0000 C   0  0  0  0  0  0  0  0  0  0  0  0
    0.7500   -9.0933    0.0000 C   0  0  0  0  0  0  0  0  0  0  0  0
    1.5000   -7.7942    0.0000 C   0  0  0  0  0  0  0  0  0  0  0  0
  1  2  1  0
  2  3  1  0
  3  4  1  0
  4  5  1  0
  5  6  2  0
  5  7  1  0
  7  8  2  0
  8  9  1  0
  9 10  2  0
 10 11  1  0
 11 12  2  0
 10 13  1  0
 13 14  2  0
 14 15  1  0
 15 16  2  0
 16 17  1  0
 17 18  2  0
  3 19  1  0
 19 20  2  0
 20 21  1  0
 21 22  2  0
 22 23  1  0
 23 24  2  0
 12  7  1  0
 18 13  1  0
 24 19  1  0
M  END
>  <Molecule>  (657) 
CHEMBL1990254

>  <Standard Type>  (657) 
Ki

>  <Standard Relation>  (657) 
>

>  <Standard Value>  (657) 
5011.87

>  <Standard Units>  (657) 
nM

>  <pChEMBL Value>  (657) 
nan

>  <Comment>  (657) 
inactive

>  <Compound Key>  (657) 
SID103904554

>  <Assay>  (657) 
CHEMBL1963742

>  <Assay Description>  (657) 
PUBCHEM_BIOASSAY: Navigating the Kinome. (Class of assay: other) Panel member name: JAK3

>  <BAO Format>  (657) 
assay format

>  <Target>  (657) 
CHEMBL2148

>  <Target Pref. Name>  (657) 
Tyrosine-protein kinase JAK3

>  <Target Organism>  (657) 
Homo sapiens

>  <Target Type>  (657) 
SINGLE PROTEIN

>  <Document>  (657) 
CHEMBL1201862

>  <Source>  (657) 
PubChem BioAssays

>  <Max Phase>  (657) 
0

>  <#Ro5 Violations>  (657) 
0

>  <Molecular Weight>  (657) 
317.39

>  <Ligand Efficiency BEI>  (657) 
nan

>  <Ligand Efficiency LE>  (657) 
nan

>  <Ligand Efficiency LLE>  (657) 
nan

>  <Ligand Efficiency SEI>  (657) 
nan

>  <ALogP>  (657) 
3.18

>  <Assay Organism>  (657) 
nan

>  <Assay Tissue ChEMBL ID>  (657) 
nan

>  <Assay Tissue Name>  (657) 
nan

>  <Assay Cell Type>  (657) 
nan

>  <Assay Subcellular Fraction>  (657) 
nan

>  <Organism Tax ID>  (657) 
9606

>  <BAO Format ID>  (657) 
BAO_0000019

>  <Published Type>  (657) 
nan

>  <Published Relation>  (657) 
nan

>  <Published Value>  (657) 
nan

>  <Published Units>  (657) 
nan

>  <Canonical Smiles>  (657) 
NCC(NC(=O)c1ccc(cc1)c2ccncc2)c3ccccc3

>  <Data Validity Comment>  (657) 
nan

>  <Document Journal>  (657) 
nan

>  <Document Year>  (657) 
nan

>  <SRC ID>  (657) 
7

>  <UO Units>  (657) 
UO_0000065

>  <Potential Duplicate>  (657) 
False

>  <Class>  (657) 
0

$$$$

     RDKit          2D

 19 21  0  0  0  0  0  0  0  0999 V2000
    6.0000   -2.5981    0.0000 C   0  0  0  0  0  0  0  0  0  0  0  0
    5.2500   -1.2990    0.0000 C   0  0  0  0  0  0  0  0  0  0  0  0
    3.7500   -1.2990    0.0000 O   0  0  0  0  0  0  0  0  0  0  0  0
    3.0000    0.0000    0.0000 C   0  0  0  0  0  0  0  0  0  0  0  0
    3.7500    1.2990    0.0000 O   0  0  0  0  0  0  0  0  0  0  0  0
    1.5000    0.0000    0.0000 C   0  0  0  0  0  0  0  0  0  0  0  0
    0.7500   -1.2990    0.0000 C   0  0  0  0  0  0  0  0  0  0  0  0
   -0.7500   -1.2990    0.0000 C   0  0  0  0  0  0  0  0  0  0  0  0
   -1.5000    0.0000    0.0000 C   0  0  0  0  0  0  0  0  0  0  0  0
   -2.9672    0.3119    0.0000 N   0  0  0  0  0  0  0  0  0  0  0  0
   -3.1240    1.8037    0.0000 C   0  0  0  0  0  0  0  0  0  0  0  0
   -4.3375    2.6853    0.0000 C   0  0  0  0  0  0  0  0  0  0  0  0
   -5.7079    2.0752    0.0000 O   0  0  0  0  0  0  0  0  0  0  0  0
   -4.1807    4.1771    0.0000 N   0  0  0  0  0  0  0  0  0  0  0  0
   -2.8104    4.7872    0.0000 C   0  0  0  0  0  0  0  0  0  0  0  0
   -1.5969    3.9055    0.0000 C   0  0  0  0  0  0  0  0  0  0  0  0
   -1.7537    2.4138    0.0000 C   0  0  0  0  0  0  0  0  0  0  0  0
   -0.7500    1.2990    0.0000 C   0  0  0  0  0  0  0  0  0  0  0  0
    0.7500    1.2990    0.0000 C   0  0  0  0  0  0  0  0  0  0  0  0
  1  2  1  0
  2  3  1  0
  3  4  1  0
  4  5  2  0
  4  6  1  0
  6  7  2  0
  7  8  1  0
  8  9  2  0
  9 10  1  0
 10 11  1  0
 11 12  1  0
 12 13  2  0
 12 14  1  0
 14 15  1  0
 15 16  1  0
 16 17  1  0
 17 18  1  0
 18 19  2  0
 19  6  1  0
 18  9  1  0
 17 11  2  0
M  END
>  <Molecule>  (658) 
CHEMBL2005528

>  <Standard Type>  (658) 
Ki

>  <Standard Relation>  (658) 
>

>  <Standard Value>  (658) 
1584.89

>  <Standard Units>  (658) 
nM

>  <pChEMBL Value>  (658) 
nan

>  <Comment>  (658) 
inactive

>  <Compound Key>  (658) 
SID103905407

>  <Assay>  (658) 
CHEMBL1963742

>  <Assay Description>  (658) 
PUBCHEM_BIOASSAY: Navigating the Kinome. (Class of assay: other) Panel member name: JAK3

>  <BAO Format>  (658) 
assay format

>  <Target>  (658) 
CHEMBL2148

>  <Target Pref. Name>  (658) 
Tyrosine-protein kinase JAK3

>  <Target Organism>  (658) 
Homo sapiens

>  <Target Type>  (658) 
SINGLE PROTEIN

>  <Document>  (658) 
CHEMBL1201862

>  <Source>  (658) 
PubChem BioAssays

>  <Max Phase>  (658) 
0

>  <#Ro5 Violations>  (658) 
0

>  <Molecular Weight>  (658) 
258.28

>  <Ligand Efficiency BEI>  (658) 
nan

>  <Ligand Efficiency LE>  (658) 
nan

>  <Ligand Efficiency LLE>  (658) 
nan

>  <Ligand Efficiency SEI>  (658) 
nan

>  <ALogP>  (658) 
1.63

>  <Assay Organism>  (658) 
nan

>  <Assay Tissue ChEMBL ID>  (658) 
nan

>  <Assay Tissue Name>  (658) 
nan

>  <Assay Cell Type>  (658) 
nan

>  <Assay Subcellular Fraction>  (658) 
nan

>  <Organism Tax ID>  (658) 
9606

>  <BAO Format ID>  (658) 
BAO_0000019

>  <Published Type>  (658) 
nan

>  <Published Relation>  (658) 
nan

>  <Published Value>  (658) 
nan

>  <Published Units>  (658) 
nan

>  <Canonical Smiles>  (658) 
CCOC(=O)c1ccc2[nH]c3C(=O)NCCc3c2c1

>  <Data Validity Comment>  (658) 
nan

>  <Document Journal>  (658) 
nan

>  <Document Year>  (658) 
nan

>  <SRC ID>  (658) 
7

>  <UO Units>  (658) 
UO_0000065

>  <Potential Duplicate>  (658) 
False

>  <Class>  (658) 
0

$$$$

     RDKit          2D

 23 25  0  0  0  0  0  0  0  0999 V2000
  -13.1151    6.3853    0.0000 O   0  0  0  0  0  0  0  0  0  0  0  0
  -12.0003    5.3816    0.0000 C   0  0  0  0  0  0  0  0  0  0  0  0
  -10.5738    5.8451    0.0000 C   0  0  0  0  0  0  0  0  0  0  0  0
   -9.4590    4.8414    0.0000 C   0  0  0  0  0  0  0  0  0  0  0  0
   -9.7709    3.3742    0.0000 C   0  0  0  0  0  0  0  0  0  0  0  0
   -8.6562    2.3705    0.0000 C   0  0  0  0  0  0  0  0  0  0  0  0
   -7.2296    2.8340    0.0000 N   0  0  0  0  0  0  0  0  0  0  0  0
   -6.1149    1.8303    0.0000 N   0  0  0  0  0  0  0  0  0  0  0  0
   -4.6883    2.2939    0.0000 C   0  0  0  0  0  0  0  0  0  0  0  0
   -4.3764    3.7611    0.0000 O   0  0  0  0  0  0  0  0  0  0  0  0
   -3.5736    1.2902    0.0000 N   0  0  0  0  0  0  0  0  0  0  0  0
   -2.1470    1.7537    0.0000 C   0  0  0  0  0  0  0  0  0  0  0  0
   -1.8351    3.2209    0.0000 C   0  0  0  0  0  0  0  0  0  0  0  0
   -0.4086    3.6844    0.0000 C   0  0  0  0  0  0  0  0  0  0  0  0
    0.7062    2.6807    0.0000 C   0  0  0  0  0  0  0  0  0  0  0  0
    0.3943    1.2135    0.0000 C   0  0  0  0  0  0  0  0  0  0  0  0
    1.2760    0.0000    0.0000 N   0  0  0  0  0  0  0  0  0  0  0  0
    0.3943   -1.2135    0.0000 S   0  0  0  0  0  0  0  0  0  0  0  0
   -1.0323   -0.7500    0.0000 N   0  0  0  0  0  0  0  0  0  0  0  0
   -1.0323    0.7500    0.0000 C   0  0  0  0  0  0  0  0  0  0  0  0
  -11.1975    2.9107    0.0000 C   0  0  0  0  0  0  0  0  0  0  0  0
  -11.5094    1.4435    0.0000 O   0  0  0  0  0  0  0  0  0  0  0  0
  -12.3122    3.9144    0.0000 C   0  0  0  0  0  0  0  0  0  0  0  0
  1  2  1  0
  2  3  2  0
  3  4  1  0
  4  5  2  0
  5  6  1  0
  6  7  2  3
  7  8  1  0
  8  9  1  0
  9 10  2  0
  9 11  1  0
 11 12  1  0
 12 13  2  0
 13 14  1  0
 14 15  2  0
 15 16  1  0
 16 17  2  0
 17 18  1  0
 18 19  1  0
 19 20  2  0
  5 21  1  0
 21 22  1  0
 21 23  2  0
 23  2  1  0
 20 12  1  0
 20 16  1  0
M  END
>  <Molecule>  (659) 
CHEMBL1999811

>  <Standard Type>  (659) 
Ki

>  <Standard Relation>  (659) 
>

>  <Standard Value>  (659) 
1584.89

>  <Standard Units>  (659) 
nM

>  <pChEMBL Value>  (659) 
nan

>  <Comment>  (659) 
inactive

>  <Compound Key>  (659) 
SID103905509

>  <Assay>  (659) 
CHEMBL1963742

>  <Assay Description>  (659) 
PUBCHEM_BIOASSAY: Navigating the Kinome. (Class of assay: other) Panel member name: JAK3

>  <BAO Format>  (659) 
assay format

>  <Target>  (659) 
CHEMBL2148

>  <Target Pref. Name>  (659) 
Tyrosine-protein kinase JAK3

>  <Target Organism>  (659) 
Homo sapiens

>  <Target Type>  (659) 
SINGLE PROTEIN

>  <Document>  (659) 
CHEMBL1201862

>  <Source>  (659) 
PubChem BioAssays

>  <Max Phase>  (659) 
0

>  <#Ro5 Violations>  (659) 
0

>  <Molecular Weight>  (659) 
329.34

>  <Ligand Efficiency BEI>  (659) 
nan

>  <Ligand Efficiency LE>  (659) 
nan

>  <Ligand Efficiency LLE>  (659) 
nan

>  <Ligand Efficiency SEI>  (659) 
nan

>  <ALogP>  (659) 
2.26

>  <Assay Organism>  (659) 
nan

>  <Assay Tissue ChEMBL ID>  (659) 
nan

>  <Assay Tissue Name>  (659) 
nan

>  <Assay Cell Type>  (659) 
nan

>  <Assay Subcellular Fraction>  (659) 
nan

>  <Organism Tax ID>  (659) 
9606

>  <BAO Format ID>  (659) 
BAO_0000019

>  <Published Type>  (659) 
nan

>  <Published Relation>  (659) 
nan

>  <Published Value>  (659) 
nan

>  <Published Units>  (659) 
nan

>  <Canonical Smiles>  (659) 
Oc1ccc(C=NNC(=O)Nc2cccc3nsnc23)c(O)c1

>  <Data Validity Comment>  (659) 
nan

>  <Document Journal>  (659) 
nan

>  <Document Year>  (659) 
nan

>  <SRC ID>  (659) 
7

>  <UO Units>  (659) 
UO_0000065

>  <Potential Duplicate>  (659) 
False

>  <Class>  (659) 
0

$$$$

     RDKit          2D

 30 34  0  0  0  0  0  0  0  0999 V2000
   -5.1814   -2.6490    0.0000 C   0  0  0  0  0  0  0  0  0  0  0  0
   -3.7548   -2.1855    0.0000 C   0  0  0  0  0  0  0  0  0  0  0  0
   -3.4430   -0.7182    0.0000 C   0  0  0  0  0  0  0  0  0  0  0  0
   -2.6401   -3.1891    0.0000 C   0  0  0  0  0  0  0  0  0  0  0  0
   -1.2135   -2.7256    0.0000 N   0  0  0  0  0  0  0  0  0  0  0  0
   -0.0000   -3.6073    0.0000 C   0  0  0  0  0  0  0  0  0  0  0  0
   -0.0000   -5.1073    0.0000 N   0  0  0  0  0  0  0  0  0  0  0  0
    1.2135   -2.7256    0.0000 N   0  0  0  0  0  0  0  0  0  0  0  0
    0.7500   -1.2990    0.0000 C   0  0  0  0  0  0  0  0  0  0  0  0
    1.5000    0.0000    0.0000 C   0  0  0  0  0  0  0  0  0  0  0  0
    3.0000    0.0000    0.0000 F   0  0  0  0  0  0  0  0  0  0  0  0
    0.7500    1.2990    0.0000 C   0  0  0  0  0  0  0  0  0  0  0  0
   -0.7500    1.2990    0.0000 C   0  0  0  0  0  0  0  0  0  0  0  0
   -1.5000    0.0000    0.0000 C   0  0  0  0  0  0  0  0  0  0  0  0
   -0.7500   -1.2990    0.0000 C   0  0  0  0  0  0  0  0  0  0  0  0
   -1.5000    2.5981    0.0000 C   0  0  0  0  0  0  0  0  0  0  0  0
   -2.9918    2.7549    0.0000 C   0  0  0  0  0  0  0  0  0  0  0  0
   -3.3037    4.2221    0.0000 N   0  0  0  0  0  0  0  0  0  0  0  0
   -2.0046    4.9721    0.0000 C   0  0  0  0  0  0  0  0  0  0  0  0
   -1.3945    6.3424    0.0000 S   0  0  0  0  0  0  0  0  0  0  0  0
    0.0973    6.1856    0.0000 C   0  0  0  0  0  0  0  0  0  0  0  0
    0.4091    4.7184    0.0000 C   0  0  0  0  0  0  0  0  0  0  0  0
   -0.8899    3.9684    0.0000 N   0  0  0  0  0  0  0  0  0  0  0  0
   -3.9955    1.6402    0.0000 C   0  0  0  0  0  0  0  0  0  0  0  0
   -5.4627    1.9520    0.0000 C   0  0  0  0  0  0  0  0  0  0  0  0
   -6.4664    0.8373    0.0000 C   0  0  0  0  0  0  0  0  0  0  0  0
   -6.0029   -0.5893    0.0000 C   0  0  0  0  0  0  0  0  0  0  0  0
   -7.0066   -1.7040    0.0000 F   0  0  0  0  0  0  0  0  0  0  0  0
   -4.5356   -0.9012    0.0000 C   0  0  0  0  0  0  0  0  0  0  0  0
   -3.5320    0.2136    0.0000 C   0  0  0  0  0  0  0  0  0  0  0  0
  1  2  1  0
  2  3  1  0
  2  4  1  0
  4  5  1  0
  5  6  1  0
  6  7  1  0
  6  8  2  0
  8  9  1  0
  9 10  2  0
 10 11  1  0
 10 12  1  0
 12 13  2  0
 13 14  1  0
 14 15  2  0
 13 16  1  0
 16 17  2  0
 17 18  1  0
 18 19  2  0
 19 20  1  0
 20 21  1  0
 21 22  2  0
 22 23  1  0
 17 24  1  0
 24 25  2  0
 25 26  1  0
 26 27  2  0
 27 28  1  0
 27 29  1  0
 29 30  2  0
 15  5  1  0
 15  9  1  0
 23 16  1  0
 23 19  1  0
 30 24  1  0
M  END
>  <Molecule>  (660) 
CHEMBL2004419

>  <Standard Type>  (660) 
Ki

>  <Standard Relation>  (660) 
>

>  <Standard Value>  (660) 
1584.89

>  <Standard Units>  (660) 
nM

>  <pChEMBL Value>  (660) 
nan

>  <Comment>  (660) 
inactive

>  <Compound Key>  (660) 
SID103905063

>  <Assay>  (660) 
CHEMBL1963742

>  <Assay Description>  (660) 
PUBCHEM_BIOASSAY: Navigating the Kinome. (Class of assay: other) Panel member name: JAK3

>  <BAO Format>  (660) 
assay format

>  <Target>  (660) 
CHEMBL2148

>  <Target Pref. Name>  (660) 
Tyrosine-protein kinase JAK3

>  <Target Organism>  (660) 
Homo sapiens

>  <Target Type>  (660) 
SINGLE PROTEIN

>  <Document>  (660) 
CHEMBL1201862

>  <Source>  (660) 
PubChem BioAssays

>  <Max Phase>  (660) 
0

>  <#Ro5 Violations>  (660) 
1

>  <Molecular Weight>  (660) 
423.49

>  <Ligand Efficiency BEI>  (660) 
nan

>  <Ligand Efficiency LE>  (660) 
nan

>  <Ligand Efficiency LLE>  (660) 
nan

>  <Ligand Efficiency SEI>  (660) 
nan

>  <ALogP>  (660) 
5.6

>  <Assay Organism>  (660) 
nan

>  <Assay Tissue ChEMBL ID>  (660) 
nan

>  <Assay Tissue Name>  (660) 
nan

>  <Assay Cell Type>  (660) 
nan

>  <Assay Subcellular Fraction>  (660) 
nan

>  <Organism Tax ID>  (660) 
9606

>  <BAO Format ID>  (660) 
BAO_0000019

>  <Published Type>  (660) 
nan

>  <Published Relation>  (660) 
nan

>  <Published Value>  (660) 
nan

>  <Published Units>  (660) 
nan

>  <Canonical Smiles>  (660) 
CC(C)Cn1c(N)nc2c(F)cc(cc12)c3c(nc4sccn34)c5ccc(F)cc5

>  <Data Validity Comment>  (660) 
nan

>  <Document Journal>  (660) 
nan

>  <Document Year>  (660) 
nan

>  <SRC ID>  (660) 
7

>  <UO Units>  (660) 
UO_0000065

>  <Potential Duplicate>  (660) 
False

>  <Class>  (660) 
0

$$$$

     RDKit          2D

 36 39  0  0  0  0  0  0  0  0999 V2000
   -7.8396   -9.2187    0.0000 C   0  0  0  0  0  0  0  0  0  0  0  0
   -6.3478   -9.0619    0.0000 C   0  0  0  0  0  0  0  0  0  0  0  0
   -4.8560   -8.9052    0.0000 C   0  0  0  0  0  0  0  0  0  0  0  0
   -6.1910  -10.5537    0.0000 C   0  0  0  0  0  0  0  0  0  0  0  0
   -6.5046   -7.5702    0.0000 C   0  0  0  0  0  0  0  0  0  0  0  0
   -5.3899   -6.5665    0.0000 C   0  0  0  0  0  0  0  0  0  0  0  0
   -6.0000   -5.1962    0.0000 C   0  0  0  0  0  0  0  0  0  0  0  0
   -5.2500   -3.8971    0.0000 N   0  0  0  0  0  0  0  0  0  0  0  0
   -3.7500   -3.8971    0.0000 C   0  0  0  0  0  0  0  0  0  0  0  0
   -3.0000   -5.1962    0.0000 O   0  0  0  0  0  0  0  0  0  0  0  0
   -3.0000   -2.5981    0.0000 N   0  0  0  0  0  0  0  0  0  0  0  0
   -1.5000   -2.5981    0.0000 C   0  0  0  0  0  0  0  0  0  0  0  0
   -0.7500   -3.8971    0.0000 C   0  0  0  0  0  0  0  0  0  0  0  0
    0.7500   -3.8971    0.0000 C   0  0  0  0  0  0  0  0  0  0  0  0
    1.5000   -2.5981    0.0000 C   0  0  0  0  0  0  0  0  0  0  0  0
    0.7500   -1.2990    0.0000 C   0  0  0  0  0  0  0  0  0  0  0  0
    1.5000    0.0000    0.0000 C   0  0  0  0  0  0  0  0  0  0  0  0
    0.7500    1.2990    0.0000 C   0  0  0  0  0  0  0  0  0  0  0  0
   -0.7500    1.2990    0.0000 C   0  0  0  0  0  0  0  0  0  0  0  0
   -1.5000    0.0000    0.0000 C   0  0  0  0  0  0  0  0  0  0  0  0
   -0.7500   -1.2990    0.0000 C   0  0  0  0  0  0  0  0  0  0  0  0
   -7.4918   -5.3529    0.0000 N   0  0  0  0  0  0  0  0  0  0  0  0
   -7.8037   -6.8202    0.0000 N   0  0  0  0  0  0  0  0  0  0  0  0
   -8.4955   -4.2382    0.0000 C   0  0  0  0  0  0  0  0  0  0  0  0
   -8.0320   -2.8116    0.0000 C   0  0  0  0  0  0  0  0  0  0  0  0
   -9.0356   -1.6969    0.0000 C   0  0  0  0  0  0  0  0  0  0  0  0
  -10.5029   -2.0088    0.0000 C   0  0  0  0  0  0  0  0  0  0  0  0
  -10.9664   -3.4354    0.0000 C   0  0  0  0  0  0  0  0  0  0  0  0
   -9.9627   -4.5501    0.0000 C   0  0  0  0  0  0  0  0  0  0  0  0
  -12.4336   -3.7472    0.0000 C   0  0  0  0  0  0  0  0  0  0  0  0
  -12.8971   -5.1738    0.0000 O   0  0  0  0  0  0  0  0  0  0  0  0
  -13.4373   -2.6325    0.0000 N   0  0  0  0  0  0  0  0  0  0  0  0
  -14.9045   -2.9444    0.0000 C   0  0  0  0  0  0  0  0  0  0  0  0
  -15.9082   -1.8297    0.0000 C   0  0  0  0  0  0  0  0  0  0  0  0
  -17.3755   -2.1415    0.0000 C   0  0  0  0  0  0  0  0  0  0  0  0
  -18.3791   -1.0268    0.0000 O   0  0  0  0  0  0  0  0  0  0  0  0
  1  2  1  0
  2  3  1  0
  2  4  1  0
  2  5  1  0
  5  6  1  0
  6  7  2  0
  7  8  1  0
  8  9  1  0
  9 10  2  0
  9 11  1  0
 11 12  1  0
 12 13  2  0
 13 14  1  0
 14 15  2  0
 15 16  1  0
 16 17  2  0
 17 18  1  0
 18 19  2  0
 19 20  1  0
 20 21  2  0
  7 22  1  0
 22 23  1  0
 22 24  1  0
 24 25  2  0
 25 26  1  0
 26 27  2  0
 27 28  1  0
 28 29  2  0
 28 30  1  0
 30 31  2  0
 30 32  1  0
 32 33  1  0
 33 34  1  0
 34 35  1  0
 35 36  1  0
 23  5  2  0
 21 12  1  0
 21 16  1  0
 29 24  1  0
M  END
>  <Molecule>  (661) 
CHEMBL2007073

>  <Standard Type>  (661) 
Ki

>  <Standard Relation>  (661) 
>

>  <Standard Value>  (661) 
5011.87

>  <Standard Units>  (661) 
nM

>  <pChEMBL Value>  (661) 
nan

>  <Comment>  (661) 
inactive

>  <Compound Key>  (661) 
SID103904838

>  <Assay>  (661) 
CHEMBL1963742

>  <Assay Description>  (661) 
PUBCHEM_BIOASSAY: Navigating the Kinome. (Class of assay: other) Panel member name: JAK3

>  <BAO Format>  (661) 
assay format

>  <Target>  (661) 
CHEMBL2148

>  <Target Pref. Name>  (661) 
Tyrosine-protein kinase JAK3

>  <Target Organism>  (661) 
Homo sapiens

>  <Target Type>  (661) 
SINGLE PROTEIN

>  <Document>  (661) 
CHEMBL1201862

>  <Source>  (661) 
PubChem BioAssays

>  <Max Phase>  (661) 
0

>  <#Ro5 Violations>  (661) 
1

>  <Molecular Weight>  (661) 
485.59

>  <Ligand Efficiency BEI>  (661) 
nan

>  <Ligand Efficiency LE>  (661) 
nan

>  <Ligand Efficiency LLE>  (661) 
nan

>  <Ligand Efficiency SEI>  (661) 
nan

>  <ALogP>  (661) 
5.08

>  <Assay Organism>  (661) 
nan

>  <Assay Tissue ChEMBL ID>  (661) 
nan

>  <Assay Tissue Name>  (661) 
nan

>  <Assay Cell Type>  (661) 
nan

>  <Assay Subcellular Fraction>  (661) 
nan

>  <Organism Tax ID>  (661) 
9606

>  <BAO Format ID>  (661) 
BAO_0000019

>  <Published Type>  (661) 
nan

>  <Published Relation>  (661) 
nan

>  <Published Value>  (661) 
nan

>  <Published Units>  (661) 
nan

>  <Canonical Smiles>  (661) 
CC(C)(C)c1cc(NC(=O)Nc2cccc3ccccc23)n(n1)c4cccc(c4)C(=O)NCCCO

>  <Data Validity Comment>  (661) 
nan

>  <Document Journal>  (661) 
nan

>  <Document Year>  (661) 
nan

>  <SRC ID>  (661) 
7

>  <UO Units>  (661) 
UO_0000065

>  <Potential Duplicate>  (661) 
False

>  <Class>  (661) 
0

$$$$

     RDKit          2D

 34 38  0  0  0  0  0  0  0  0999 V2000
   -3.0000   -7.7942    0.0000 O   0  0  0  0  0  0  0  0  0  0  0  0
   -1.5000   -7.7942    0.0000 C   0  0  0  0  0  0  0  0  0  0  0  0
   -0.7500   -9.0933    0.0000 O   0  0  0  0  0  0  0  0  0  0  0  0
   -0.7500   -6.4952    0.0000 C   0  0  0  0  0  0  0  0  0  0  0  0
   -1.5000   -5.1962    0.0000 C   0  0  0  0  0  0  0  0  0  0  0  0
   -0.7500   -3.8971    0.0000 C   0  0  0  0  0  0  0  0  0  0  0  0
    0.7500   -3.8971    0.0000 C   0  0  0  0  0  0  0  0  0  0  0  0
    1.5000   -2.5981    0.0000 N   0  0  0  0  0  0  0  0  0  0  0  0
    0.7500   -1.2990    0.0000 C   0  0  0  0  0  0  0  0  0  0  0  0
    1.5000    0.0000    0.0000 N   0  0  0  0  0  0  0  0  0  0  0  0
    0.7500    1.2990    0.0000 C   0  0  0  0  0  0  0  0  0  0  0  0
   -0.7500    1.2990    0.0000 C   0  0  0  0  0  0  0  0  0  0  0  0
   -1.2980    2.6953    0.0000 C   0  0  0  0  0  0  0  0  0  0  0  0
   -2.7314    3.1375    0.0000 N   0  0  0  0  0  0  0  0  0  0  0  0
   -3.9707    2.2925    0.0000 C   0  0  0  0  0  0  0  0  0  0  0  0
   -4.0828    0.7967    0.0000 C   0  0  0  0  0  0  0  0  0  0  0  0
   -5.5162    0.3546    0.0000 C   0  0  0  0  0  0  0  0  0  0  0  0
   -5.8500   -1.1078    0.0000 C   0  0  0  0  0  0  0  0  0  0  0  0
   -7.2833   -1.5500    0.0000 Cl  0  0  0  0  0  0  0  0  0  0  0  0
   -4.7504   -2.1281    0.0000 C   0  0  0  0  0  0  0  0  0  0  0  0
   -3.3170   -1.6860    0.0000 C   0  0  0  0  0  0  0  0  0  0  0  0
   -2.9832   -0.2236    0.0000 C   0  0  0  0  0  0  0  0  0  0  0  0
   -1.5000    0.0000    0.0000 C   0  0  0  0  0  0  0  0  0  0  0  0
   -0.7500   -1.2990    0.0000 N   0  0  0  0  0  0  0  0  0  0  0  0
   -5.2698    3.0425    0.0000 C   0  0  0  0  0  0  0  0  0  0  0  0
   -5.2698    4.5425    0.0000 C   0  0  0  0  0  0  0  0  0  0  0  0
   -3.9707    5.2925    0.0000 F   0  0  0  0  0  0  0  0  0  0  0  0
   -6.5688    5.2925    0.0000 C   0  0  0  0  0  0  0  0  0  0  0  0
   -7.8678    4.5425    0.0000 C   0  0  0  0  0  0  0  0  0  0  0  0
   -7.8678    3.0425    0.0000 C   0  0  0  0  0  0  0  0  0  0  0  0
   -6.5688    2.2925    0.0000 C   0  0  0  0  0  0  0  0  0  0  0  0
   -6.5688    0.7925    0.0000 F   0  0  0  0  0  0  0  0  0  0  0  0
    1.5000   -5.1962    0.0000 C   0  0  0  0  0  0  0  0  0  0  0  0
    0.7500   -6.4952    0.0000 C   0  0  0  0  0  0  0  0  0  0  0  0
  1  2  1  0
  2  3  2  0
  2  4  1  0
  4  5  2  0
  5  6  1  0
  6  7  2  0
  7  8  1  0
  8  9  1  0
  9 10  2  0
 10 11  1  0
 11 12  2  0
 12 13  1  0
 13 14  1  0
 14 15  2  0
 15 16  1  0
 16 17  2  0
 17 18  1  0
 18 19  1  0
 18 20  2  0
 20 21  1  0
 21 22  2  0
 22 23  1  0
 23 24  2  0
 15 25  1  0
 25 26  2  0
 26 27  1  0
 26 28  1  0
 28 29  2  0
 29 30  1  0
 30 31  2  0
 31 32  1  0
  7 33  1  0
 33 34  2  0
 34  4  1  0
 24  9  1  0
 23 12  1  0
 22 16  1  0
 31 25  1  0
M  END
>  <Molecule>  (662) 
CHEMBL259084

>  <Standard Type>  (662) 
Ki

>  <Standard Relation>  (662) 
>

>  <Standard Value>  (662) 
3981.07

>  <Standard Units>  (662) 
nM

>  <pChEMBL Value>  (662) 
nan

>  <Comment>  (662) 
inactive

>  <Compound Key>  (662) 
428508

>  <Assay>  (662) 
CHEMBL1963742

>  <Assay Description>  (662) 
PUBCHEM_BIOASSAY: Navigating the Kinome. (Class of assay: other) Panel member name: JAK3

>  <BAO Format>  (662) 
assay format

>  <Target>  (662) 
CHEMBL2148

>  <Target Pref. Name>  (662) 
Tyrosine-protein kinase JAK3

>  <Target Organism>  (662) 
Homo sapiens

>  <Target Type>  (662) 
SINGLE PROTEIN

>  <Document>  (662) 
CHEMBL1201862

>  <Source>  (662) 
PubChem BioAssays

>  <Max Phase>  (662) 
1

>  <#Ro5 Violations>  (662) 
1

>  <Molecular Weight>  (662) 
476.87

>  <Ligand Efficiency BEI>  (662) 
nan

>  <Ligand Efficiency LE>  (662) 
nan

>  <Ligand Efficiency LLE>  (662) 
nan

>  <Ligand Efficiency SEI>  (662) 
nan

>  <ALogP>  (662) 
5.87

>  <Assay Organism>  (662) 
nan

>  <Assay Tissue ChEMBL ID>  (662) 
nan

>  <Assay Tissue Name>  (662) 
nan

>  <Assay Cell Type>  (662) 
nan

>  <Assay Subcellular Fraction>  (662) 
nan

>  <Organism Tax ID>  (662) 
9606

>  <BAO Format ID>  (662) 
BAO_0000019

>  <Published Type>  (662) 
nan

>  <Published Relation>  (662) 
nan

>  <Published Value>  (662) 
nan

>  <Published Units>  (662) 
nan

>  <Canonical Smiles>  (662) 
OC(=O)c1ccc(Nc2ncc3CN=C(c4cc(Cl)ccc4c3n2)c5c(F)cccc5F)cc1

>  <Data Validity Comment>  (662) 
nan

>  <Document Journal>  (662) 
nan

>  <Document Year>  (662) 
nan

>  <SRC ID>  (662) 
7

>  <UO Units>  (662) 
UO_0000065

>  <Potential Duplicate>  (662) 
False

>  <Class>  (662) 
0

$$$$

     RDKit          2D

 24 26  0  0  0  0  0  0  0  0999 V2000
    3.7500   -6.4952    0.0000 N   0  0  0  0  0  0  0  0  0  0  0  0
    3.0000   -5.1962    0.0000 C   0  0  0  0  0  0  0  0  0  0  0  0
    1.5000   -5.1962    0.0000 C   0  0  0  0  0  0  0  0  0  0  0  0
    0.7500   -3.8971    0.0000 N   0  0  0  0  0  0  0  0  0  0  0  0
    1.5000   -2.5981    0.0000 C   0  0  0  0  0  0  0  0  0  0  0  0
    3.0000   -2.5981    0.0000 O   0  0  0  0  0  0  0  0  0  0  0  0
    0.7500   -1.2990    0.0000 C   0  0  0  0  0  0  0  0  0  0  0  0
    1.5000    0.0000    0.0000 C   0  0  0  0  0  0  0  0  0  0  0  0
    0.7500    1.2990    0.0000 C   0  0  0  0  0  0  0  0  0  0  0  0
   -0.7500    1.2990    0.0000 C   0  0  0  0  0  0  0  0  0  0  0  0
   -1.5000    0.0000    0.0000 C   0  0  0  0  0  0  0  0  0  0  0  0
   -0.7500   -1.2990    0.0000 C   0  0  0  0  0  0  0  0  0  0  0  0
   -1.5000    2.5981    0.0000 C   0  0  0  0  0  0  0  0  0  0  0  0
   -0.7500    3.8971    0.0000 C   0  0  0  0  0  0  0  0  0  0  0  0
   -1.5000    5.1962    0.0000 C   0  0  0  0  0  0  0  0  0  0  0  0
   -3.0000    5.1962    0.0000 N   0  0  0  0  0  0  0  0  0  0  0  0
   -3.7500    3.8971    0.0000 C   0  0  0  0  0  0  0  0  0  0  0  0
   -3.0000    2.5981    0.0000 C   0  0  0  0  0  0  0  0  0  0  0  0
    0.7500   -6.4952    0.0000 C   0  0  0  0  0  0  0  0  0  0  0  0
   -0.7500   -6.4952    0.0000 C   0  0  0  0  0  0  0  0  0  0  0  0
   -1.5000   -7.7942    0.0000 C   0  0  0  0  0  0  0  0  0  0  0  0
   -0.7500   -9.0933    0.0000 C   0  0  0  0  0  0  0  0  0  0  0  0
    0.7500   -9.0933    0.0000 C   0  0  0  0  0  0  0  0  0  0  0  0
    1.5000   -7.7942    0.0000 C   0  0  0  0  0  0  0  0  0  0  0  0
  1  2  1  0
  2  3  1  0
  3  4  1  0
  4  5  1  0
  5  6  2  0
  5  7  1  0
  7  8  2  0
  8  9  1  0
  9 10  2  0
 10 11  1  0
 11 12  2  0
 10 13  1  0
 13 14  2  0
 14 15  1  0
 15 16  2  0
 16 17  1  0
 17 18  2  0
  3 19  1  0
 19 20  2  0
 20 21  1  0
 21 22  2  0
 22 23  1  0
 23 24  2  0
 12  7  1  0
 18 13  1  0
 24 19  1  0
M  END
>  <Molecule>  (663) 
CHEMBL1990254

>  <Standard Type>  (663) 
Ki

>  <Standard Relation>  (663) 
>

>  <Standard Value>  (663) 
1584.89

>  <Standard Units>  (663) 
nM

>  <pChEMBL Value>  (663) 
nan

>  <Comment>  (663) 
inactive

>  <Compound Key>  (663) 
SID103904555

>  <Assay>  (663) 
CHEMBL1963742

>  <Assay Description>  (663) 
PUBCHEM_BIOASSAY: Navigating the Kinome. (Class of assay: other) Panel member name: JAK3

>  <BAO Format>  (663) 
assay format

>  <Target>  (663) 
CHEMBL2148

>  <Target Pref. Name>  (663) 
Tyrosine-protein kinase JAK3

>  <Target Organism>  (663) 
Homo sapiens

>  <Target Type>  (663) 
SINGLE PROTEIN

>  <Document>  (663) 
CHEMBL1201862

>  <Source>  (663) 
PubChem BioAssays

>  <Max Phase>  (663) 
0

>  <#Ro5 Violations>  (663) 
0

>  <Molecular Weight>  (663) 
317.39

>  <Ligand Efficiency BEI>  (663) 
nan

>  <Ligand Efficiency LE>  (663) 
nan

>  <Ligand Efficiency LLE>  (663) 
nan

>  <Ligand Efficiency SEI>  (663) 
nan

>  <ALogP>  (663) 
3.18

>  <Assay Organism>  (663) 
nan

>  <Assay Tissue ChEMBL ID>  (663) 
nan

>  <Assay Tissue Name>  (663) 
nan

>  <Assay Cell Type>  (663) 
nan

>  <Assay Subcellular Fraction>  (663) 
nan

>  <Organism Tax ID>  (663) 
9606

>  <BAO Format ID>  (663) 
BAO_0000019

>  <Published Type>  (663) 
nan

>  <Published Relation>  (663) 
nan

>  <Published Value>  (663) 
nan

>  <Published Units>  (663) 
nan

>  <Canonical Smiles>  (663) 
NCC(NC(=O)c1ccc(cc1)c2ccncc2)c3ccccc3

>  <Data Validity Comment>  (663) 
nan

>  <Document Journal>  (663) 
nan

>  <Document Year>  (663) 
nan

>  <SRC ID>  (663) 
7

>  <UO Units>  (663) 
UO_0000065

>  <Potential Duplicate>  (663) 
False

>  <Class>  (663) 
0

$$$$

     RDKit          2D

 29 31  0  0  0  0  0  0  0  0999 V2000
    6.0000   -7.7942    0.0000 C   0  0  0  0  0  0  0  0  0  0  0  0
    5.2500   -6.4952    0.0000 O   0  0  0  0  0  0  0  0  0  0  0  0
    3.7500   -6.4952    0.0000 C   0  0  0  0  0  0  0  0  0  0  0  0
    3.0000   -5.1962    0.0000 C   0  0  0  0  0  0  0  0  0  0  0  0
    1.5000   -5.1962    0.0000 O   0  0  0  0  0  0  0  0  0  0  0  0
    0.7500   -3.8971    0.0000 C   0  0  0  0  0  0  0  0  0  0  0  0
    1.5000   -2.5981    0.0000 C   0  0  0  0  0  0  0  0  0  0  0  0
    0.7500   -1.2990    0.0000 C   0  0  0  0  0  0  0  0  0  0  0  0
    1.5000    0.0000    0.0000 N   0  0  0  0  0  0  0  0  0  0  0  0
    0.7500    1.2990    0.0000 C   0  0  0  0  0  0  0  0  0  0  0  0
   -0.7500    1.2990    0.0000 N   0  0  0  0  0  0  0  0  0  0  0  0
   -1.5000    0.0000    0.0000 C   0  0  0  0  0  0  0  0  0  0  0  0
   -3.0000    0.0000    0.0000 N   0  0  0  0  0  0  0  0  0  0  0  0
   -3.7500    1.2990    0.0000 C   0  0  0  0  0  0  0  0  0  0  0  0
   -3.0000    2.5981    0.0000 C   0  0  0  0  0  0  0  0  0  0  0  0
   -3.7500    3.8971    0.0000 C   0  0  0  0  0  0  0  0  0  0  0  0
   -5.2500    3.8971    0.0000 C   0  0  0  0  0  0  0  0  0  0  0  0
   -6.0000    2.5981    0.0000 C   0  0  0  0  0  0  0  0  0  0  0  0
   -5.2500    1.2990    0.0000 C   0  0  0  0  0  0  0  0  0  0  0  0
   -7.5000    2.5981    0.0000 C   0  0  0  0  0  0  0  0  0  0  0  0
   -9.0000    2.5981    0.0000 C   0  0  0  0  0  0  0  0  0  0  0  0
   -0.7500   -1.2990    0.0000 C   0  0  0  0  0  0  0  0  0  0  0  0
   -1.5000   -2.5981    0.0000 C   0  0  0  0  0  0  0  0  0  0  0  0
   -0.7500   -3.8971    0.0000 C   0  0  0  0  0  0  0  0  0  0  0  0
   -1.5000   -5.1962    0.0000 O   0  0  0  0  0  0  0  0  0  0  0  0
   -3.0000   -5.1962    0.0000 C   0  0  0  0  0  0  0  0  0  0  0  0
   -3.7500   -6.4952    0.0000 C   0  0  0  0  0  0  0  0  0  0  0  0
   -5.2500   -6.4952    0.0000 O   0  0  0  0  0  0  0  0  0  0  0  0
   -6.0000   -7.7942    0.0000 C   0  0  0  0  0  0  0  0  0  0  0  0
  1  2  1  0
  2  3  1  0
  3  4  1  0
  4  5  1  0
  5  6  1  0
  6  7  2  0
  7  8  1  0
  8  9  2  0
  9 10  1  0
 10 11  2  0
 11 12  1  0
 12 13  1  0
 13 14  1  0
 14 15  2  0
 15 16  1  0
 16 17  2  0
 17 18  1  0
 18 19  2  0
 18 20  1  0
 20 21  3  0
 12 22  2  0
 22 23  1  0
 23 24  2  0
 24 25  1  0
 25 26  1  0
 26 27  1  0
 27 28  1  0
 28 29  1  0
 24  6  1  0
 22  8  1  0
 19 14  1  0
M  END
>  <Molecule>  (664) 
CHEMBL553

>  <Standard Type>  (664) 
Ki

>  <Standard Relation>  (664) 
>

>  <Standard Value>  (664) 
5011.87

>  <Standard Units>  (664) 
nM

>  <pChEMBL Value>  (664) 
nan

>  <Comment>  (664) 
inactive

>  <Compound Key>  (664) 
SID103905339

>  <Assay>  (664) 
CHEMBL1963742

>  <Assay Description>  (664) 
PUBCHEM_BIOASSAY: Navigating the Kinome. (Class of assay: other) Panel member name: JAK3

>  <BAO Format>  (664) 
assay format

>  <Target>  (664) 
CHEMBL2148

>  <Target Pref. Name>  (664) 
Tyrosine-protein kinase JAK3

>  <Target Organism>  (664) 
Homo sapiens

>  <Target Type>  (664) 
SINGLE PROTEIN

>  <Document>  (664) 
CHEMBL1201862

>  <Source>  (664) 
PubChem BioAssays

>  <Max Phase>  (664) 
4

>  <#Ro5 Violations>  (664) 
0

>  <Molecular Weight>  (664) 
393.44

>  <Ligand Efficiency BEI>  (664) 
nan

>  <Ligand Efficiency LE>  (664) 
nan

>  <Ligand Efficiency LLE>  (664) 
nan

>  <Ligand Efficiency SEI>  (664) 
nan

>  <ALogP>  (664) 
3.41

>  <Assay Organism>  (664) 
nan

>  <Assay Tissue ChEMBL ID>  (664) 
nan

>  <Assay Tissue Name>  (664) 
nan

>  <Assay Cell Type>  (664) 
nan

>  <Assay Subcellular Fraction>  (664) 
nan

>  <Organism Tax ID>  (664) 
9606

>  <BAO Format ID>  (664) 
BAO_0000019

>  <Published Type>  (664) 
nan

>  <Published Relation>  (664) 
nan

>  <Published Value>  (664) 
nan

>  <Published Units>  (664) 
nan

>  <Canonical Smiles>  (664) 
COCCOc1cc2ncnc(Nc3cccc(c3)C#C)c2cc1OCCOC

>  <Data Validity Comment>  (664) 
nan

>  <Document Journal>  (664) 
nan

>  <Document Year>  (664) 
nan

>  <SRC ID>  (664) 
7

>  <UO Units>  (664) 
UO_0000065

>  <Potential Duplicate>  (664) 
False

>  <Class>  (664) 
0

$$$$

     RDKit          2D

 22 25  0  0  0  0  0  0  0  0999 V2000
    3.0000   -1.5000    0.0000 C   0  0  0  0  0  0  0  0  0  0  0  0
    3.0000    0.0000    0.0000 C   0  0  0  0  0  0  0  0  0  0  0  0
    3.0000    1.5000    0.0000 C   0  0  0  0  0  0  0  0  0  0  0  0
    4.5000    0.0000    0.0000 C   0  0  0  0  0  0  0  0  0  0  0  0
    1.5000    0.0000    0.0000 C   0  0  0  0  0  0  0  0  0  0  0  0
    0.7500   -1.2990    0.0000 C   0  0  0  0  0  0  0  0  0  0  0  0
   -0.7500   -1.2990    0.0000 C   0  0  0  0  0  0  0  0  0  0  0  0
   -1.5000    0.0000    0.0000 C   0  0  0  0  0  0  0  0  0  0  0  0
   -2.9672    0.3119    0.0000 N   0  0  0  0  0  0  0  0  0  0  0  0
   -3.1240    1.8037    0.0000 C   0  0  0  0  0  0  0  0  0  0  0  0
   -1.7537    2.4138    0.0000 N   0  0  0  0  0  0  0  0  0  0  0  0
   -0.7500    1.2990    0.0000 C   0  0  0  0  0  0  0  0  0  0  0  0
    0.7500    1.2990    0.0000 C   0  0  0  0  0  0  0  0  0  0  0  0
   -4.4231    2.5537    0.0000 C   0  0  0  0  0  0  0  0  0  0  0  0
   -4.5798    4.0454    0.0000 N   0  0  0  0  0  0  0  0  0  0  0  0
   -6.0471    4.3573    0.0000 N   0  0  0  0  0  0  0  0  0  0  0  0
   -6.7971    3.0583    0.0000 C   0  0  0  0  0  0  0  0  0  0  0  0
   -8.2643    2.7464    0.0000 C   0  0  0  0  0  0  0  0  0  0  0  0
   -8.7278    1.3198    0.0000 C   0  0  0  0  0  0  0  0  0  0  0  0
   -7.7241    0.2051    0.0000 C   0  0  0  0  0  0  0  0  0  0  0  0
   -6.2569    0.5170    0.0000 C   0  0  0  0  0  0  0  0  0  0  0  0
   -5.7934    1.9435    0.0000 C   0  0  0  0  0  0  0  0  0  0  0  0
  1  2  1  0
  2  3  1  0
  2  4  1  0
  2  5  1  0
  5  6  2  0
  6  7  1  0
  7  8  2  0
  8  9  1  0
  9 10  2  0
 10 11  1  0
 11 12  1  0
 12 13  2  0
 10 14  1  0
 14 15  2  0
 15 16  1  0
 16 17  1  0
 17 18  2  0
 18 19  1  0
 19 20  2  0
 20 21  1  0
 21 22  2  0
 13  5  1  0
 12  8  1  0
 22 14  1  0
 22 17  1  0
M  END
>  <Molecule>  (665) 
CHEMBL1970104

>  <Standard Type>  (665) 
Ki

>  <Standard Relation>  (665) 
=

>  <Standard Value>  (665) 
398.11

>  <Standard Units>  (665) 
nM

>  <pChEMBL Value>  (665) 
6.4

>  <Comment>  (665) 
active

>  <Compound Key>  (665) 
SID103904904

>  <Assay>  (665) 
CHEMBL1963742

>  <Assay Description>  (665) 
PUBCHEM_BIOASSAY: Navigating the Kinome. (Class of assay: other) Panel member name: JAK3

>  <BAO Format>  (665) 
assay format

>  <Target>  (665) 
CHEMBL2148

>  <Target Pref. Name>  (665) 
Tyrosine-protein kinase JAK3

>  <Target Organism>  (665) 
Homo sapiens

>  <Target Type>  (665) 
SINGLE PROTEIN

>  <Document>  (665) 
CHEMBL1201862

>  <Source>  (665) 
PubChem BioAssays

>  <Max Phase>  (665) 
0

>  <#Ro5 Violations>  (665) 
0

>  <Molecular Weight>  (665) 
290.37

>  <Ligand Efficiency BEI>  (665) 
nan

>  <Ligand Efficiency LE>  (665) 
nan

>  <Ligand Efficiency LLE>  (665) 
nan

>  <Ligand Efficiency SEI>  (665) 
nan

>  <ALogP>  (665) 
4.4

>  <Assay Organism>  (665) 
nan

>  <Assay Tissue ChEMBL ID>  (665) 
nan

>  <Assay Tissue Name>  (665) 
nan

>  <Assay Cell Type>  (665) 
nan

>  <Assay Subcellular Fraction>  (665) 
nan

>  <Organism Tax ID>  (665) 
9606

>  <BAO Format ID>  (665) 
BAO_0000019

>  <Published Type>  (665) 
nan

>  <Published Relation>  (665) 
nan

>  <Published Value>  (665) 
nan

>  <Published Units>  (665) 
nan

>  <Canonical Smiles>  (665) 
CC(C)(C)c1ccc2nc([nH]c2c1)c3n[nH]c4ccccc34

>  <Data Validity Comment>  (665) 
nan

>  <Document Journal>  (665) 
nan

>  <Document Year>  (665) 
nan

>  <SRC ID>  (665) 
7

>  <UO Units>  (665) 
UO_0000065

>  <Potential Duplicate>  (665) 
False

>  <Class>  (665) 
1

$$$$

     RDKit          2D

 21 24  0  0  0  0  0  0  0  0999 V2000
   -2.8864    8.8834    0.0000 F   0  0  0  0  0  0  0  0  0  0  0  0
   -2.4229    7.4568    0.0000 C   0  0  0  0  0  0  0  0  0  0  0  0
   -0.9556    7.1449    0.0000 C   0  0  0  0  0  0  0  0  0  0  0  0
   -0.4921    5.7184    0.0000 C   0  0  0  0  0  0  0  0  0  0  0  0
   -1.4958    4.6036    0.0000 C   0  0  0  0  0  0  0  0  0  0  0  0
   -2.9630    4.9155    0.0000 C   0  0  0  0  0  0  0  0  0  0  0  0
   -3.4266    6.3421    0.0000 C   0  0  0  0  0  0  0  0  0  0  0  0
   -1.0323    3.1771    0.0000 C   0  0  0  0  0  0  0  0  0  0  0  0
    0.3943    2.7135    0.0000 N   0  0  0  0  0  0  0  0  0  0  0  0
    0.3943    1.2135    0.0000 C   0  0  0  0  0  0  0  0  0  0  0  0
    1.2760    0.0000    0.0000 S   0  0  0  0  0  0  0  0  0  0  0  0
    0.3943   -1.2135    0.0000 C   0  0  0  0  0  0  0  0  0  0  0  0
   -1.0323   -0.7500    0.0000 C   0  0  0  0  0  0  0  0  0  0  0  0
   -1.0323    0.7500    0.0000 N   0  0  0  0  0  0  0  0  0  0  0  0
   -1.9140    1.9635    0.0000 C   0  0  0  0  0  0  0  0  0  0  0  0
   -3.4140    1.9635    0.0000 C   0  0  0  0  0  0  0  0  0  0  0  0
   -4.1640    3.2626    0.0000 C   0  0  0  0  0  0  0  0  0  0  0  0
   -5.6640    3.2626    0.0000 C   0  0  0  0  0  0  0  0  0  0  0  0
   -6.4140    1.9635    0.0000 N   0  0  0  0  0  0  0  0  0  0  0  0
   -5.6640    0.6645    0.0000 C   0  0  0  0  0  0  0  0  0  0  0  0
   -4.1640    0.6645    0.0000 C   0  0  0  0  0  0  0  0  0  0  0  0
  1  2  1  0
  2  3  2  0
  3  4  1  0
  4  5  2  0
  5  6  1  0
  6  7  2  0
  5  8  1  0
  8  9  1  0
  9 10  2  0
 10 11  1  0
 11 12  1  0
 12 13  2  0
 13 14  1  0
 14 15  1  0
 15 16  1  0
 16 17  2  0
 17 18  1  0
 18 19  2  0
 19 20  1  0
 20 21  2  0
  7  2  1  0
 15  8  2  0
 14 10  1  0
 21 16  1  0
M  END
>  <Molecule>  (666) 
CHEMBL2000508

>  <Standard Type>  (666) 
Ki

>  <Standard Relation>  (666) 
>

>  <Standard Value>  (666) 
1584.89

>  <Standard Units>  (666) 
nM

>  <pChEMBL Value>  (666) 
nan

>  <Comment>  (666) 
inactive

>  <Compound Key>  (666) 
SID103905065

>  <Assay>  (666) 
CHEMBL1963742

>  <Assay Description>  (666) 
PUBCHEM_BIOASSAY: Navigating the Kinome. (Class of assay: other) Panel member name: JAK3

>  <BAO Format>  (666) 
assay format

>  <Target>  (666) 
CHEMBL2148

>  <Target Pref. Name>  (666) 
Tyrosine-protein kinase JAK3

>  <Target Organism>  (666) 
Homo sapiens

>  <Target Type>  (666) 
SINGLE PROTEIN

>  <Document>  (666) 
CHEMBL1201862

>  <Source>  (666) 
PubChem BioAssays

>  <Max Phase>  (666) 
0

>  <#Ro5 Violations>  (666) 
0

>  <Molecular Weight>  (666) 
295.34

>  <Ligand Efficiency BEI>  (666) 
nan

>  <Ligand Efficiency LE>  (666) 
nan

>  <Ligand Efficiency LLE>  (666) 
nan

>  <Ligand Efficiency SEI>  (666) 
nan

>  <ALogP>  (666) 
4.26

>  <Assay Organism>  (666) 
nan

>  <Assay Tissue ChEMBL ID>  (666) 
nan

>  <Assay Tissue Name>  (666) 
nan

>  <Assay Cell Type>  (666) 
nan

>  <Assay Subcellular Fraction>  (666) 
nan

>  <Organism Tax ID>  (666) 
9606

>  <BAO Format ID>  (666) 
BAO_0000019

>  <Published Type>  (666) 
nan

>  <Published Relation>  (666) 
nan

>  <Published Value>  (666) 
nan

>  <Published Units>  (666) 
nan

>  <Canonical Smiles>  (666) 
Fc1ccc(cc1)c2nc3sccn3c2c4ccncc4

>  <Data Validity Comment>  (666) 
nan

>  <Document Journal>  (666) 
nan

>  <Document Year>  (666) 
nan

>  <SRC ID>  (666) 
7

>  <UO Units>  (666) 
UO_0000065

>  <Potential Duplicate>  (666) 
False

>  <Class>  (666) 
0

$$$$

     RDKit          2D

 31 33  0  0  0  0  0  0  0  0999 V2000
    5.2500   -1.2990    0.0000 C   0  0  0  0  0  0  0  0  0  0  0  0
    3.7500   -1.2990    0.0000 N   0  0  0  0  0  0  0  0  0  0  0  0
    3.0000    0.0000    0.0000 C   0  0  0  0  0  0  0  0  0  0  0  0
    3.7500    1.2990    0.0000 O   0  0  0  0  0  0  0  0  0  0  0  0
    1.5000    0.0000    0.0000 C   0  0  0  0  0  0  0  0  0  0  0  0
    0.7500   -1.2990    0.0000 C   0  0  0  0  0  0  0  0  0  0  0  0
   -0.7500   -1.2990    0.0000 C   0  0  0  0  0  0  0  0  0  0  0  0
   -1.5000   -2.5981    0.0000 O   0  0  0  0  0  0  0  0  0  0  0  0
   -3.0000   -2.5981    0.0000 C   0  0  0  0  0  0  0  0  0  0  0  0
   -3.7500   -1.2990    0.0000 C   0  0  0  0  0  0  0  0  0  0  0  0
   -5.2500   -1.2990    0.0000 C   0  0  0  0  0  0  0  0  0  0  0  0
   -6.0000   -2.5981    0.0000 C   0  0  0  0  0  0  0  0  0  0  0  0
   -7.5000   -2.5981    0.0000 N   0  0  0  0  0  0  0  0  0  0  0  0
   -8.2500   -1.2990    0.0000 C   0  0  0  0  0  0  0  0  0  0  0  0
   -7.5000    0.0000    0.0000 O   0  0  0  0  0  0  0  0  0  0  0  0
   -9.7500   -1.2990    0.0000 N   0  0  0  0  0  0  0  0  0  0  0  0
  -10.5000    0.0000    0.0000 C   0  0  0  0  0  0  0  0  0  0  0  0
   -9.7500    1.2990    0.0000 C   0  0  0  0  0  0  0  0  0  0  0  0
  -10.5000    2.5981    0.0000 C   0  0  0  0  0  0  0  0  0  0  0  0
  -12.0000    2.5981    0.0000 C   0  0  0  0  0  0  0  0  0  0  0  0
  -12.7500    1.2990    0.0000 C   0  0  0  0  0  0  0  0  0  0  0  0
  -12.0000    0.0000    0.0000 C   0  0  0  0  0  0  0  0  0  0  0  0
  -14.2500    1.2990    0.0000 C   0  0  0  0  0  0  0  0  0  0  0  0
  -15.7500    1.2990    0.0000 F   0  0  0  0  0  0  0  0  0  0  0  0
  -14.2500    2.7990    0.0000 F   0  0  0  0  0  0  0  0  0  0  0  0
  -14.2500   -0.2010    0.0000 F   0  0  0  0  0  0  0  0  0  0  0  0
   -5.2500   -3.8971    0.0000 C   0  0  0  0  0  0  0  0  0  0  0  0
   -3.7500   -3.8971    0.0000 C   0  0  0  0  0  0  0  0  0  0  0  0
   -1.5000    0.0000    0.0000 C   0  0  0  0  0  0  0  0  0  0  0  0
   -0.7500    1.2990    0.0000 C   0  0  0  0  0  0  0  0  0  0  0  0
    0.7500    1.2990    0.0000 N   0  0  0  0  0  0  0  0  0  0  0  0
  1  2  1  0
  2  3  1  0
  3  4  2  0
  3  5  1  0
  5  6  2  0
  6  7  1  0
  7  8  1  0
  8  9  1  0
  9 10  2  0
 10 11  1  0
 11 12  2  0
 12 13  1  0
 13 14  1  0
 14 15  2  0
 14 16  1  0
 16 17  1  0
 17 18  2  0
 18 19  1  0
 19 20  2  0
 20 21  1  0
 21 22  2  0
 21 23  1  0
 23 24  1  0
 23 25  1  0
 23 26  1  0
 12 27  1  0
 27 28  2  0
  7 29  2  0
 29 30  1  0
 30 31  2  0
 31  5  1  0
 28  9  1  0
 22 17  1  0
M  END
>  <Molecule>  (667) 
CHEMBL1992306

>  <Standard Type>  (667) 
Ki

>  <Standard Relation>  (667) 
>

>  <Standard Value>  (667) 
1584.89

>  <Standard Units>  (667) 
nM

>  <pChEMBL Value>  (667) 
nan

>  <Comment>  (667) 
inactive

>  <Compound Key>  (667) 
SID103904741

>  <Assay>  (667) 
CHEMBL1963742

>  <Assay Description>  (667) 
PUBCHEM_BIOASSAY: Navigating the Kinome. (Class of assay: other) Panel member name: JAK3

>  <BAO Format>  (667) 
assay format

>  <Target>  (667) 
CHEMBL2148

>  <Target Pref. Name>  (667) 
Tyrosine-protein kinase JAK3

>  <Target Organism>  (667) 
Homo sapiens

>  <Target Type>  (667) 
SINGLE PROTEIN

>  <Document>  (667) 
CHEMBL1201862

>  <Source>  (667) 
PubChem BioAssays

>  <Max Phase>  (667) 
0

>  <#Ro5 Violations>  (667) 
0

>  <Molecular Weight>  (667) 
430.39

>  <Ligand Efficiency BEI>  (667) 
nan

>  <Ligand Efficiency LE>  (667) 
nan

>  <Ligand Efficiency LLE>  (667) 
nan

>  <Ligand Efficiency SEI>  (667) 
nan

>  <ALogP>  (667) 
4.9

>  <Assay Organism>  (667) 
nan

>  <Assay Tissue ChEMBL ID>  (667) 
nan

>  <Assay Tissue Name>  (667) 
nan

>  <Assay Cell Type>  (667) 
nan

>  <Assay Subcellular Fraction>  (667) 
nan

>  <Organism Tax ID>  (667) 
9606

>  <BAO Format ID>  (667) 
BAO_0000019

>  <Published Type>  (667) 
nan

>  <Published Relation>  (667) 
nan

>  <Published Value>  (667) 
nan

>  <Published Units>  (667) 
nan

>  <Canonical Smiles>  (667) 
CNC(=O)c1cc(Oc2ccc(NC(=O)Nc3cccc(c3)C(F)(F)F)cc2)ccn1

>  <Data Validity Comment>  (667) 
nan

>  <Document Journal>  (667) 
nan

>  <Document Year>  (667) 
nan

>  <SRC ID>  (667) 
7

>  <UO Units>  (667) 
UO_0000065

>  <Potential Duplicate>  (667) 
False

>  <Class>  (667) 
0

$$$$

     RDKit          2D

 26 28  0  0  0  0  0  0  0  0999 V2000
   -5.7221   -1.8037    0.0000 N   0  0  0  0  0  0  0  0  0  0  0  0
   -4.4231   -2.5537    0.0000 C   0  0  0  0  0  0  0  0  0  0  0  0
   -4.4231   -4.0537    0.0000 O   0  0  0  0  0  0  0  0  0  0  0  0
   -3.1240   -1.8037    0.0000 C   0  0  0  0  0  0  0  0  0  0  0  0
   -1.7537   -2.4138    0.0000 C   0  0  0  0  0  0  0  0  0  0  0  0
   -0.7500   -1.2990    0.0000 C   0  0  0  0  0  0  0  0  0  0  0  0
    0.7500   -1.2990    0.0000 C   0  0  0  0  0  0  0  0  0  0  0  0
    1.5000    0.0000    0.0000 C   0  0  0  0  0  0  0  0  0  0  0  0
    0.7500    1.2990    0.0000 N   0  0  0  0  0  0  0  0  0  0  0  0
   -0.7500    1.2990    0.0000 C   0  0  0  0  0  0  0  0  0  0  0  0
   -1.5000    0.0000    0.0000 C   0  0  0  0  0  0  0  0  0  0  0  0
   -2.9672   -0.3119    0.0000 S   0  0  0  0  0  0  0  0  0  0  0  0
    1.5000   -2.5981    0.0000 C   0  0  0  0  0  0  0  0  0  0  0  0
    0.7500   -3.8971    0.0000 C   0  0  0  0  0  0  0  0  0  0  0  0
    1.5000   -5.1962    0.0000 C   0  0  0  0  0  0  0  0  0  0  0  0
    3.0000   -5.1962    0.0000 C   0  0  0  0  0  0  0  0  0  0  0  0
    3.7500   -3.8971    0.0000 C   0  0  0  0  0  0  0  0  0  0  0  0
    3.0000   -2.5981    0.0000 C   0  0  0  0  0  0  0  0  0  0  0  0
    5.2500   -3.8971    0.0000 C   0  0  0  0  0  0  0  0  0  0  0  0
    6.7500   -3.8971    0.0000 F   0  0  0  0  0  0  0  0  0  0  0  0
    5.2500   -5.3971    0.0000 F   0  0  0  0  0  0  0  0  0  0  0  0
    5.2500   -2.3971    0.0000 F   0  0  0  0  0  0  0  0  0  0  0  0
    0.7500   -6.4952    0.0000 C   0  0  0  0  0  0  0  0  0  0  0  0
   -0.0000   -7.7942    0.0000 F   0  0  0  0  0  0  0  0  0  0  0  0
   -0.5490   -5.7452    0.0000 F   0  0  0  0  0  0  0  0  0  0  0  0
    2.0490   -7.2452    0.0000 F   0  0  0  0  0  0  0  0  0  0  0  0
  1  2  1  0
  2  3  2  0
  2  4  1  0
  4  5  2  0
  5  6  1  0
  6  7  2  0
  7  8  1  0
  8  9  2  0
  9 10  1  0
 10 11  2  0
 11 12  1  0
  7 13  1  0
 13 14  2  0
 14 15  1  0
 15 16  2  0
 16 17  1  0
 17 18  2  0
 17 19  1  0
 19 20  1  0
 19 21  1  0
 19 22  1  0
 15 23  1  0
 23 24  1  0
 23 25  1  0
 23 26  1  0
 12  4  1  0
 11  6  1  0
 18 13  1  0
M  END
>  <Molecule>  (668) 
CHEMBL2002322

>  <Standard Type>  (668) 
Ki

>  <Standard Relation>  (668) 
>

>  <Standard Value>  (668) 
1584.89

>  <Standard Units>  (668) 
nM

>  <pChEMBL Value>  (668) 
nan

>  <Comment>  (668) 
inactive

>  <Compound Key>  (668) 
SID103905048

>  <Assay>  (668) 
CHEMBL1963742

>  <Assay Description>  (668) 
PUBCHEM_BIOASSAY: Navigating the Kinome. (Class of assay: other) Panel member name: JAK3

>  <BAO Format>  (668) 
assay format

>  <Target>  (668) 
CHEMBL2148

>  <Target Pref. Name>  (668) 
Tyrosine-protein kinase JAK3

>  <Target Organism>  (668) 
Homo sapiens

>  <Target Type>  (668) 
SINGLE PROTEIN

>  <Document>  (668) 
CHEMBL1201862

>  <Source>  (668) 
PubChem BioAssays

>  <Max Phase>  (668) 
0

>  <#Ro5 Violations>  (668) 
1

>  <Molecular Weight>  (668) 
390.31

>  <Ligand Efficiency BEI>  (668) 
nan

>  <Ligand Efficiency LE>  (668) 
nan

>  <Ligand Efficiency LLE>  (668) 
nan

>  <Ligand Efficiency SEI>  (668) 
nan

>  <ALogP>  (668) 
5.1

>  <Assay Organism>  (668) 
nan

>  <Assay Tissue ChEMBL ID>  (668) 
nan

>  <Assay Tissue Name>  (668) 
nan

>  <Assay Cell Type>  (668) 
nan

>  <Assay Subcellular Fraction>  (668) 
nan

>  <Organism Tax ID>  (668) 
9606

>  <BAO Format ID>  (668) 
BAO_0000019

>  <Published Type>  (668) 
nan

>  <Published Relation>  (668) 
nan

>  <Published Value>  (668) 
nan

>  <Published Units>  (668) 
nan

>  <Canonical Smiles>  (668) 
NC(=O)c1cc2c(cncc2s1)c3cc(cc(c3)C(F)(F)F)C(F)(F)F

>  <Data Validity Comment>  (668) 
nan

>  <Document Journal>  (668) 
nan

>  <Document Year>  (668) 
nan

>  <SRC ID>  (668) 
7

>  <UO Units>  (668) 
UO_0000065

>  <Potential Duplicate>  (668) 
False

>  <Class>  (668) 
0

$$$$

     RDKit          2D

 23 26  0  0  0  0  0  0  0  0999 V2000
   -6.6059    5.7685    0.0000 C   0  0  0  0  0  0  0  0  0  0  0  0
   -6.9177    4.3013    0.0000 S   0  0  0  0  0  0  0  0  0  0  0  0
   -5.4505    3.9894    0.0000 O   0  0  0  0  0  0  0  0  0  0  0  0
   -8.3850    4.6131    0.0000 O   0  0  0  0  0  0  0  0  0  0  0  0
   -7.2296    2.8340    0.0000 N   0  0  0  0  0  0  0  0  0  0  0  0
   -6.1149    1.8303    0.0000 C   0  0  0  0  0  0  0  0  0  0  0  0
   -4.6883    2.2939    0.0000 C   0  0  0  0  0  0  0  0  0  0  0  0
   -4.3764    3.7611    0.0000 C   0  0  0  0  0  0  0  0  0  0  0  0
   -2.9499    4.2246    0.0000 C   0  0  0  0  0  0  0  0  0  0  0  0
   -1.8351    3.2209    0.0000 C   0  0  0  0  0  0  0  0  0  0  0  0
   -0.4086    3.6844    0.0000 N   0  0  0  0  0  0  0  0  0  0  0  0
    0.7062    2.6807    0.0000 C   0  0  0  0  0  0  0  0  0  0  0  0
    2.1328    3.1443    0.0000 O   0  0  0  0  0  0  0  0  0  0  0  0
    0.3943    1.2135    0.0000 C   0  0  0  0  0  0  0  0  0  0  0  0
    1.2760    0.0000    0.0000 C   0  0  0  0  0  0  0  0  0  0  0  0
    0.3943   -1.2135    0.0000 C   0  0  0  0  0  0  0  0  0  0  0  0
   -1.0323   -0.7500    0.0000 C   0  0  0  0  0  0  0  0  0  0  0  0
   -1.0323    0.7500    0.0000 N   0  0  0  0  0  0  0  0  0  0  0  0
   -2.1470    1.7537    0.0000 C   0  0  0  0  0  0  0  0  0  0  0  0
   -3.5736    1.2902    0.0000 C   0  0  0  0  0  0  0  0  0  0  0  0
   -8.6562    2.3705    0.0000 C   0  0  0  0  0  0  0  0  0  0  0  0
   -9.6599    1.2558    0.0000 C   0  0  0  0  0  0  0  0  0  0  0  0
  -10.1234    2.6824    0.0000 C   0  0  0  0  0  0  0  0  0  0  0  0
  1  2  1  0
  2  3  2  0
  2  4  2  0
  2  5  1  0
  5  6  1  0
  6  7  1  0
  7  8  2  0
  8  9  1  0
  9 10  2  0
 10 11  1  0
 11 12  1  0
 12 13  2  0
 12 14  1  0
 14 15  2  0
 15 16  1  0
 16 17  2  0
 17 18  1  0
 18 19  1  0
 19 20  2  0
  5 21  1  0
 21 22  1  0
 22 23  1  0
 20  7  1  0
 19 10  1  0
 18 14  1  0
 23 21  1  0
M  END
>  <Molecule>  (669) 
CHEMBL1978448

>  <Standard Type>  (669) 
Ki

>  <Standard Relation>  (669) 
>

>  <Standard Value>  (669) 
2511.89

>  <Standard Units>  (669) 
nM

>  <pChEMBL Value>  (669) 
nan

>  <Comment>  (669) 
inactive

>  <Compound Key>  (669) 
SID103904912

>  <Assay>  (669) 
CHEMBL1963742

>  <Assay Description>  (669) 
PUBCHEM_BIOASSAY: Navigating the Kinome. (Class of assay: other) Panel member name: JAK3

>  <BAO Format>  (669) 
assay format

>  <Target>  (669) 
CHEMBL2148

>  <Target Pref. Name>  (669) 
Tyrosine-protein kinase JAK3

>  <Target Organism>  (669) 
Homo sapiens

>  <Target Type>  (669) 
SINGLE PROTEIN

>  <Document>  (669) 
CHEMBL1201862

>  <Source>  (669) 
PubChem BioAssays

>  <Max Phase>  (669) 
0

>  <#Ro5 Violations>  (669) 
0

>  <Molecular Weight>  (669) 
331.4

>  <Ligand Efficiency BEI>  (669) 
nan

>  <Ligand Efficiency LE>  (669) 
nan

>  <Ligand Efficiency LLE>  (669) 
nan

>  <Ligand Efficiency SEI>  (669) 
nan

>  <ALogP>  (669) 
1.7

>  <Assay Organism>  (669) 
nan

>  <Assay Tissue ChEMBL ID>  (669) 
nan

>  <Assay Tissue Name>  (669) 
nan

>  <Assay Cell Type>  (669) 
nan

>  <Assay Subcellular Fraction>  (669) 
nan

>  <Organism Tax ID>  (669) 
9606

>  <BAO Format ID>  (669) 
BAO_0000019

>  <Published Type>  (669) 
nan

>  <Published Relation>  (669) 
nan

>  <Published Value>  (669) 
nan

>  <Published Units>  (669) 
nan

>  <Canonical Smiles>  (669) 
CS(=O)(=O)N(Cc1ccc2NC(=O)c3cccn3c2c1)C4CC4

>  <Data Validity Comment>  (669) 
nan

>  <Document Journal>  (669) 
nan

>  <Document Year>  (669) 
nan

>  <SRC ID>  (669) 
7

>  <UO Units>  (669) 
UO_0000065

>  <Potential Duplicate>  (669) 
False

>  <Class>  (669) 
0

$$$$

     RDKit          2D

 23 26  0  0  0  0  0  0  0  0999 V2000
    3.7500   -6.4952    0.0000 O   0  0  0  0  0  0  0  0  0  0  0  0
    3.0000   -5.1962    0.0000 C   0  0  0  0  0  0  0  0  0  0  0  0
    1.5000   -5.1962    0.0000 C   0  0  0  0  0  0  0  0  0  0  0  0
    0.7500   -3.8971    0.0000 C   0  0  0  0  0  0  0  0  0  0  0  0
    1.5000   -2.5981    0.0000 C   0  0  0  0  0  0  0  0  0  0  0  0
    3.0000   -2.5981    0.0000 C   0  0  0  0  0  0  0  0  0  0  0  0
    3.7500   -3.8971    0.0000 C   0  0  0  0  0  0  0  0  0  0  0  0
    0.7500   -1.2990    0.0000 C   0  0  0  0  0  0  0  0  0  0  0  0
    1.5000    0.0000    0.0000 C   0  0  0  0  0  0  0  0  0  0  0  0
    0.7500    1.2990    0.0000 C   0  0  0  0  0  0  0  0  0  0  0  0
   -0.7500    1.2990    0.0000 C   0  0  0  0  0  0  0  0  0  0  0  0
   -1.7537    2.4138    0.0000 C   0  0  0  0  0  0  0  0  0  0  0  0
   -1.4418    3.8810    0.0000 C   0  0  0  0  0  0  0  0  0  0  0  0
   -2.5565    4.8847    0.0000 C   0  0  0  0  0  0  0  0  0  0  0  0
   -4.0238    4.5728    0.0000 C   0  0  0  0  0  0  0  0  0  0  0  0
   -4.7738    5.8718    0.0000 C   0  0  0  0  0  0  0  0  0  0  0  0
   -3.7701    6.9866    0.0000 C   0  0  0  0  0  0  0  0  0  0  0  0
   -2.3998    6.3765    0.0000 N   0  0  0  0  0  0  0  0  0  0  0  0
   -3.1240    1.8037    0.0000 C   0  0  0  0  0  0  0  0  0  0  0  0
   -4.4231    2.5537    0.0000 O   0  0  0  0  0  0  0  0  0  0  0  0
   -2.9672    0.3119    0.0000 N   0  0  0  0  0  0  0  0  0  0  0  0
   -1.5000    0.0000    0.0000 C   0  0  0  0  0  0  0  0  0  0  0  0
   -0.7500   -1.2990    0.0000 C   0  0  0  0  0  0  0  0  0  0  0  0
  1  2  1  0
  2  3  2  0
  3  4  1  0
  4  5  2  0
  5  6  1  0
  6  7  2  0
  5  8  1  0
  8  9  2  0
  9 10  1  0
 10 11  2  0
 11 12  1  0
 12 13  2  3
 13 14  1  0
 14 15  2  0
 15 16  1  0
 16 17  2  0
 17 18  1  0
 12 19  1  0
 19 20  2  0
 19 21  1  0
 21 22  1  0
 22 23  2  0
  7  2  1  0
 23  8  1  0
 22 11  1  0
 18 14  1  0
M  END
>  <Molecule>  (670) 
CHEMBL1980329

>  <Standard Type>  (670) 
Ki

>  <Standard Relation>  (670) 
=

>  <Standard Value>  (670) 
19.95

>  <Standard Units>  (670) 
nM

>  <pChEMBL Value>  (670) 
7.7

>  <Comment>  (670) 
active

>  <Compound Key>  (670) 
SID103905111

>  <Assay>  (670) 
CHEMBL1963742

>  <Assay Description>  (670) 
PUBCHEM_BIOASSAY: Navigating the Kinome. (Class of assay: other) Panel member name: JAK3

>  <BAO Format>  (670) 
assay format

>  <Target>  (670) 
CHEMBL2148

>  <Target Pref. Name>  (670) 
Tyrosine-protein kinase JAK3

>  <Target Organism>  (670) 
Homo sapiens

>  <Target Type>  (670) 
SINGLE PROTEIN

>  <Document>  (670) 
CHEMBL1201862

>  <Source>  (670) 
PubChem BioAssays

>  <Max Phase>  (670) 
0

>  <#Ro5 Violations>  (670) 
0

>  <Molecular Weight>  (670) 
302.33

>  <Ligand Efficiency BEI>  (670) 
nan

>  <Ligand Efficiency LE>  (670) 
nan

>  <Ligand Efficiency LLE>  (670) 
nan

>  <Ligand Efficiency SEI>  (670) 
nan

>  <ALogP>  (670) 
3.88

>  <Assay Organism>  (670) 
nan

>  <Assay Tissue ChEMBL ID>  (670) 
nan

>  <Assay Tissue Name>  (670) 
nan

>  <Assay Cell Type>  (670) 
nan

>  <Assay Subcellular Fraction>  (670) 
nan

>  <Organism Tax ID>  (670) 
9606

>  <BAO Format ID>  (670) 
BAO_0000019

>  <Published Type>  (670) 
nan

>  <Published Relation>  (670) 
nan

>  <Published Value>  (670) 
nan

>  <Published Units>  (670) 
nan

>  <Canonical Smiles>  (670) 
Oc1ccc(cc1)c2ccc3C(=Cc4ccc[nH]4)C(=O)Nc3c2

>  <Data Validity Comment>  (670) 
nan

>  <Document Journal>  (670) 
nan

>  <Document Year>  (670) 
nan

>  <SRC ID>  (670) 
7

>  <UO Units>  (670) 
UO_0000065

>  <Potential Duplicate>  (670) 
False

>  <Class>  (670) 
1

$$$$

     RDKit          2D

 31 34  0  0  0  0  0  0  0  0999 V2000
    0.7500   -6.4952    0.0000 C   0  0  0  0  0  0  0  0  0  0  0  0
    1.5000   -5.1962    0.0000 O   0  0  0  0  0  0  0  0  0  0  0  0
    0.7500   -3.8971    0.0000 C   0  0  0  0  0  0  0  0  0  0  0  0
    1.5000   -2.5981    0.0000 C   0  0  0  0  0  0  0  0  0  0  0  0
    0.7500   -1.2990    0.0000 C   0  0  0  0  0  0  0  0  0  0  0  0
    1.5000    0.0000    0.0000 N   0  0  0  0  0  0  0  0  0  0  0  0
    0.7500    1.2990    0.0000 C   0  0  0  0  0  0  0  0  0  0  0  0
   -0.7500    1.2990    0.0000 N   0  0  0  0  0  0  0  0  0  0  0  0
   -1.5000    0.0000    0.0000 C   0  0  0  0  0  0  0  0  0  0  0  0
   -3.0000    0.0000    0.0000 N   0  0  0  0  0  0  0  0  0  0  0  0
   -3.7500    1.2990    0.0000 C   0  0  0  0  0  0  0  0  0  0  0  0
   -3.0000    2.5981    0.0000 C   0  0  0  0  0  0  0  0  0  0  0  0
   -3.7500    3.8971    0.0000 C   0  0  0  0  0  0  0  0  0  0  0  0
   -5.2500    3.8971    0.0000 C   0  0  0  0  0  0  0  0  0  0  0  0
   -6.0000    5.1962    0.0000 F   0  0  0  0  0  0  0  0  0  0  0  0
   -6.0000    2.5981    0.0000 C   0  0  0  0  0  0  0  0  0  0  0  0
   -7.5000    2.5981    0.0000 Cl  0  0  0  0  0  0  0  0  0  0  0  0
   -5.2500    1.2990    0.0000 C   0  0  0  0  0  0  0  0  0  0  0  0
   -0.7500   -1.2990    0.0000 C   0  0  0  0  0  0  0  0  0  0  0  0
   -1.5000   -2.5981    0.0000 C   0  0  0  0  0  0  0  0  0  0  0  0
   -0.7500   -3.8971    0.0000 C   0  0  0  0  0  0  0  0  0  0  0  0
   -1.5000   -5.1962    0.0000 O   0  0  0  0  0  0  0  0  0  0  0  0
   -3.0000   -5.1962    0.0000 C   0  0  0  0  0  0  0  0  0  0  0  0
   -3.7500   -6.4952    0.0000 C   0  0  0  0  0  0  0  0  0  0  0  0
   -5.2500   -6.4952    0.0000 C   0  0  0  0  0  0  0  0  0  0  0  0
   -6.0000   -7.7942    0.0000 N   0  0  0  0  0  0  0  0  0  0  0  0
   -7.5000   -7.7942    0.0000 C   0  0  0  0  0  0  0  0  0  0  0  0
   -8.2500   -9.0933    0.0000 C   0  0  0  0  0  0  0  0  0  0  0  0
   -7.5000  -10.3923    0.0000 O   0  0  0  0  0  0  0  0  0  0  0  0
   -6.0000  -10.3923    0.0000 C   0  0  0  0  0  0  0  0  0  0  0  0
   -5.2500   -9.0933    0.0000 C   0  0  0  0  0  0  0  0  0  0  0  0
  1  2  1  0
  2  3  1  0
  3  4  2  0
  4  5  1  0
  5  6  2  0
  6  7  1  0
  7  8  2  0
  8  9  1  0
  9 10  1  0
 10 11  1  0
 11 12  2  0
 12 13  1  0
 13 14  2  0
 14 15  1  0
 14 16  1  0
 16 17  1  0
 16 18  2  0
  9 19  2  0
 19 20  1  0
 20 21  2  0
 21 22  1  0
 22 23  1  0
 23 24  1  0
 24 25  1  0
 25 26  1  0
 26 27  1  0
 27 28  1  0
 28 29  1  0
 29 30  1  0
 30 31  1  0
 21  3  1  0
 19  5  1  0
 18 11  1  0
 31 26  1  0
M  END
>  <Molecule>  (671) 
CHEMBL939

>  <Standard Type>  (671) 
Ki

>  <Standard Relation>  (671) 
>

>  <Standard Value>  (671) 
1584.89

>  <Standard Units>  (671) 
nM

>  <pChEMBL Value>  (671) 
nan

>  <Comment>  (671) 
inactive

>  <Compound Key>  (671) 
SID103905344

>  <Assay>  (671) 
CHEMBL1963742

>  <Assay Description>  (671) 
PUBCHEM_BIOASSAY: Navigating the Kinome. (Class of assay: other) Panel member name: JAK3

>  <BAO Format>  (671) 
assay format

>  <Target>  (671) 
CHEMBL2148

>  <Target Pref. Name>  (671) 
Tyrosine-protein kinase JAK3

>  <Target Organism>  (671) 
Homo sapiens

>  <Target Type>  (671) 
SINGLE PROTEIN

>  <Document>  (671) 
CHEMBL1201862

>  <Source>  (671) 
PubChem BioAssays

>  <Max Phase>  (671) 
4

>  <#Ro5 Violations>  (671) 
0

>  <Molecular Weight>  (671) 
446.91

>  <Ligand Efficiency BEI>  (671) 
nan

>  <Ligand Efficiency LE>  (671) 
nan

>  <Ligand Efficiency LLE>  (671) 
nan

>  <Ligand Efficiency SEI>  (671) 
nan

>  <ALogP>  (671) 
4.28

>  <Assay Organism>  (671) 
nan

>  <Assay Tissue ChEMBL ID>  (671) 
nan

>  <Assay Tissue Name>  (671) 
nan

>  <Assay Cell Type>  (671) 
nan

>  <Assay Subcellular Fraction>  (671) 
nan

>  <Organism Tax ID>  (671) 
9606

>  <BAO Format ID>  (671) 
BAO_0000019

>  <Published Type>  (671) 
nan

>  <Published Relation>  (671) 
nan

>  <Published Value>  (671) 
nan

>  <Published Units>  (671) 
nan

>  <Canonical Smiles>  (671) 
COc1cc2ncnc(Nc3ccc(F)c(Cl)c3)c2cc1OCCCN4CCOCC4

>  <Data Validity Comment>  (671) 
nan

>  <Document Journal>  (671) 
nan

>  <Document Year>  (671) 
nan

>  <SRC ID>  (671) 
7

>  <UO Units>  (671) 
UO_0000065

>  <Potential Duplicate>  (671) 
False

>  <Class>  (671) 
0

$$$$

     RDKit          2D

 24 26  0  0  0  0  0  0  0  0999 V2000
    3.7500   -1.2990    0.0000 C   0  0  0  0  0  0  0  0  0  0  0  0
    3.0000    0.0000    0.0000 O   0  0  0  0  0  0  0  0  0  0  0  0
    1.5000    0.0000    0.0000 C   0  0  0  0  0  0  0  0  0  0  0  0
    0.7500   -1.2990    0.0000 C   0  0  0  0  0  0  0  0  0  0  0  0
   -0.7500   -1.2990    0.0000 C   0  0  0  0  0  0  0  0  0  0  0  0
   -1.5000    0.0000    0.0000 C   0  0  0  0  0  0  0  0  0  0  0  0
   -0.7500    1.2990    0.0000 C   0  0  0  0  0  0  0  0  0  0  0  0
    0.7500    1.2990    0.0000 C   0  0  0  0  0  0  0  0  0  0  0  0
   -1.5000    2.5981    0.0000 C   0  0  0  0  0  0  0  0  0  0  0  0
   -0.7500    3.8971    0.0000 C   0  0  0  0  0  0  0  0  0  0  0  0
   -3.0000    2.5981    0.0000 N   0  0  0  0  0  0  0  0  0  0  0  0
   -3.7500    3.8971    0.0000 C   0  0  0  0  0  0  0  0  0  0  0  0
   -3.0000    5.1962    0.0000 O   0  0  0  0  0  0  0  0  0  0  0  0
   -5.2500    3.8971    0.0000 C   0  0  0  0  0  0  0  0  0  0  0  0
   -6.1317    2.6836    0.0000 C   0  0  0  0  0  0  0  0  0  0  0  0
   -7.5583    3.1471    0.0000 C   0  0  0  0  0  0  0  0  0  0  0  0
   -7.5583    4.6471    0.0000 C   0  0  0  0  0  0  0  0  0  0  0  0
   -6.1317    5.1106    0.0000 S   0  0  0  0  0  0  0  0  0  0  0  0
   -8.7718    5.5288    0.0000 C   0  0  0  0  0  0  0  0  0  0  0  0
   -8.6150    7.0206    0.0000 C   0  0  0  0  0  0  0  0  0  0  0  0
   -9.8285    7.9023    0.0000 C   0  0  0  0  0  0  0  0  0  0  0  0
  -11.1988    7.2921    0.0000 N   0  0  0  0  0  0  0  0  0  0  0  0
  -11.3556    5.8004    0.0000 C   0  0  0  0  0  0  0  0  0  0  0  0
  -10.1421    4.9187    0.0000 C   0  0  0  0  0  0  0  0  0  0  0  0
  1  2  1  0
  2  3  1  0
  3  4  2  0
  4  5  1  0
  5  6  2  0
  6  7  1  0
  7  8  2  0
  7  9  1  0
  9 10  1  0
  9 11  1  0
 11 12  1  0
 12 13  2  0
 12 14  1  0
 14 15  2  0
 15 16  1  0
 16 17  2  0
 17 18  1  0
 17 19  1  0
 19 20  2  0
 20 21  1  0
 21 22  2  0
 22 23  1  0
 23 24  2  0
  8  3  1  0
 18 14  1  0
 24 19  1  0
M  END
>  <Molecule>  (672) 
CHEMBL1994724

>  <Standard Type>  (672) 
Ki

>  <Standard Relation>  (672) 
>

>  <Standard Value>  (672) 
5011.87

>  <Standard Units>  (672) 
nM

>  <pChEMBL Value>  (672) 
nan

>  <Comment>  (672) 
inactive

>  <Compound Key>  (672) 
SID103904919

>  <Assay>  (672) 
CHEMBL1963742

>  <Assay Description>  (672) 
PUBCHEM_BIOASSAY: Navigating the Kinome. (Class of assay: other) Panel member name: JAK3

>  <BAO Format>  (672) 
assay format

>  <Target>  (672) 
CHEMBL2148

>  <Target Pref. Name>  (672) 
Tyrosine-protein kinase JAK3

>  <Target Organism>  (672) 
Homo sapiens

>  <Target Type>  (672) 
SINGLE PROTEIN

>  <Document>  (672) 
CHEMBL1201862

>  <Source>  (672) 
PubChem BioAssays

>  <Max Phase>  (672) 
0

>  <#Ro5 Violations>  (672) 
0

>  <Molecular Weight>  (672) 
338.43

>  <Ligand Efficiency BEI>  (672) 
nan

>  <Ligand Efficiency LE>  (672) 
nan

>  <Ligand Efficiency LLE>  (672) 
nan

>  <Ligand Efficiency SEI>  (672) 
nan

>  <ALogP>  (672) 
4.31

>  <Assay Organism>  (672) 
nan

>  <Assay Tissue ChEMBL ID>  (672) 
nan

>  <Assay Tissue Name>  (672) 
nan

>  <Assay Cell Type>  (672) 
nan

>  <Assay Subcellular Fraction>  (672) 
nan

>  <Organism Tax ID>  (672) 
9606

>  <BAO Format ID>  (672) 
BAO_0000019

>  <Published Type>  (672) 
nan

>  <Published Relation>  (672) 
nan

>  <Published Value>  (672) 
nan

>  <Published Units>  (672) 
nan

>  <Canonical Smiles>  (672) 
COc1cccc(c1)C(C)NC(=O)c2ccc(s2)c3ccncc3

>  <Data Validity Comment>  (672) 
nan

>  <Document Journal>  (672) 
nan

>  <Document Year>  (672) 
nan

>  <SRC ID>  (672) 
7

>  <UO Units>  (672) 
UO_0000065

>  <Potential Duplicate>  (672) 
False

>  <Class>  (672) 
0

$$$$

     RDKit          2D

 41 45  0  0  0  0  0  0  0  0999 V2000
    2.5981   -8.1073    0.0000 C   0  0  0  0  0  0  0  0  0  0  0  0
    1.2990   -7.3573    0.0000 O   0  0  0  0  0  0  0  0  0  0  0  0
   -0.0000   -8.1073    0.0000 C   0  0  0  0  0  0  0  0  0  0  0  0
   -0.0000   -9.6073    0.0000 C   0  0  0  0  0  0  0  0  0  0  0  0
   -1.2990  -10.3573    0.0000 C   0  0  0  0  0  0  0  0  0  0  0  0
   -2.5981   -9.6073    0.0000 C   0  0  0  0  0  0  0  0  0  0  0  0
   -2.5981   -8.1073    0.0000 C   0  0  0  0  0  0  0  0  0  0  0  0
   -1.2990   -7.3573    0.0000 C   0  0  0  0  0  0  0  0  0  0  0  0
   -1.2990   -5.8573    0.0000 N   0  0  0  0  0  0  0  0  0  0  0  0
   -0.0000   -5.1073    0.0000 C   0  0  0  0  0  0  0  0  0  0  0  0
    1.2990   -5.8573    0.0000 O   0  0  0  0  0  0  0  0  0  0  0  0
   -0.0000   -3.6073    0.0000 C   0  0  0  0  0  0  0  0  0  0  0  0
    1.2135   -2.7256    0.0000 C   0  0  0  0  0  0  0  0  0  0  0  0
    0.7500   -1.2990    0.0000 C   0  0  0  0  0  0  0  0  0  0  0  0
    1.5000    0.0000    0.0000 C   0  0  0  0  0  0  0  0  0  0  0  0
    0.7500    1.2990    0.0000 C   0  0  0  0  0  0  0  0  0  0  0  0
   -0.7500    1.2990    0.0000 C   0  0  0  0  0  0  0  0  0  0  0  0
   -1.5000    0.0000    0.0000 C   0  0  0  0  0  0  0  0  0  0  0  0
   -0.7500   -1.2990    0.0000 C   0  0  0  0  0  0  0  0  0  0  0  0
   -1.2135   -2.7256    0.0000 N   0  0  0  0  0  0  0  0  0  0  0  0
   -2.6401   -3.1891    0.0000 C   0  0  0  0  0  0  0  0  0  0  0  0
   -1.2990  -11.8573    0.0000 C   0  0  0  0  0  0  0  0  0  0  0  0
   -0.0855  -12.7390    0.0000 C   0  0  0  0  0  0  0  0  0  0  0  0
   -0.5490  -14.1656    0.0000 S   0  0  0  0  0  0  0  0  0  0  0  0
   -2.0490  -14.1656    0.0000 C   0  0  0  0  0  0  0  0  0  0  0  0
   -3.0527  -15.2803    0.0000 C   0  0  0  0  0  0  0  0  0  0  0  0
   -2.5892  -16.7069    0.0000 C   0  0  0  0  0  0  0  0  0  0  0  0
   -3.5929  -17.8216    0.0000 C   0  0  0  0  0  0  0  0  0  0  0  0
   -3.1294  -19.2482    0.0000 C   0  0  0  0  0  0  0  0  0  0  0  0
   -1.6622  -19.5600    0.0000 O   0  0  0  0  0  0  0  0  0  0  0  0
   -4.1331  -20.3629    0.0000 N   0  0  0  0  0  0  0  0  0  0  0  0
   -3.6695  -21.7895    0.0000 C   0  0  0  0  0  0  0  0  0  0  0  0
   -4.6732  -22.9042    0.0000 C   0  0  0  0  0  0  0  0  0  0  0  0
   -4.2097  -24.3308    0.0000 N   0  0  0  0  0  0  0  0  0  0  0  0
   -5.2134  -25.4455    0.0000 C   0  0  0  0  0  0  0  0  0  0  0  0
   -2.7425  -24.6426    0.0000 C   0  0  0  0  0  0  0  0  0  0  0  0
   -4.5200  -14.9684    0.0000 C   0  0  0  0  0  0  0  0  0  0  0  0
   -4.9835  -13.5418    0.0000 N   0  0  0  0  0  0  0  0  0  0  0  0
   -3.9798  -12.4271    0.0000 C   0  0  0  0  0  0  0  0  0  0  0  0
   -4.4433  -11.0005    0.0000 N   0  0  0  0  0  0  0  0  0  0  0  0
   -2.5126  -12.7390    0.0000 C   0  0  0  0  0  0  0  0  0  0  0  0
  1  2  1  0
  2  3  1  0
  3  4  2  0
  4  5  1  0
  5  6  2  0
  6  7  1  0
  7  8  2  0
  8  9  1  0
  9 10  1  0
 10 11  2  0
 10 12  1  0
 12 13  2  0
 13 14  1  0
 14 15  2  0
 15 16  1  0
 16 17  2  0
 17 18  1  0
 18 19  2  0
 19 20  1  0
 20 21  1  0
  5 22  1  0
 22 23  2  0
 23 24  1  0
 24 25  1  0
 25 26  2  0
 26 27  1  0
 27 28  2  3
 28 29  1  0
 29 30  2  0
 29 31  1  0
 31 32  1  0
 32 33  1  0
 33 34  1  0
 34 35  1  0
 34 36  1  0
 26 37  1  0
 37 38  2  0
 38 39  1  0
 39 40  1  0
 39 41  2  0
  8  3  1  0
 20 12  1  0
 19 14  1  0
 41 22  1  0
 41 25  1  0
M  END
>  <Molecule>  (673) 
CHEMBL1989267

>  <Standard Type>  (673) 
Ki

>  <Standard Relation>  (673) 
=

>  <Standard Value>  (673) 
5011.87

>  <Standard Units>  (673) 
nM

>  <pChEMBL Value>  (673) 
5.3

>  <Comment>  (673) 
active

>  <Compound Key>  (673) 
SID103905093

>  <Assay>  (673) 
CHEMBL1963742

>  <Assay Description>  (673) 
PUBCHEM_BIOASSAY: Navigating the Kinome. (Class of assay: other) Panel member name: JAK3

>  <BAO Format>  (673) 
assay format

>  <Target>  (673) 
CHEMBL2148

>  <Target Pref. Name>  (673) 
Tyrosine-protein kinase JAK3

>  <Target Organism>  (673) 
Homo sapiens

>  <Target Type>  (673) 
SINGLE PROTEIN

>  <Document>  (673) 
CHEMBL1201862

>  <Source>  (673) 
PubChem BioAssays

>  <Max Phase>  (673) 
0

>  <#Ro5 Violations>  (673) 
1

>  <Molecular Weight>  (673) 
568.7

>  <Ligand Efficiency BEI>  (673) 
nan

>  <Ligand Efficiency LE>  (673) 
nan

>  <Ligand Efficiency LLE>  (673) 
nan

>  <Ligand Efficiency SEI>  (673) 
nan

>  <ALogP>  (673) 
4.99

>  <Assay Organism>  (673) 
nan

>  <Assay Tissue ChEMBL ID>  (673) 
nan

>  <Assay Tissue Name>  (673) 
nan

>  <Assay Cell Type>  (673) 
nan

>  <Assay Subcellular Fraction>  (673) 
nan

>  <Organism Tax ID>  (673) 
9606

>  <BAO Format ID>  (673) 
BAO_0000019

>  <Published Type>  (673) 
nan

>  <Published Relation>  (673) 
nan

>  <Published Value>  (673) 
nan

>  <Published Units>  (673) 
nan

>  <Canonical Smiles>  (673) 
COc1cc(ccc1NC(=O)c2cc3ccccc3n2C)c4csc5c(C=CC(=O)NCCN(C)C)cnc(N)c45

>  <Data Validity Comment>  (673) 
nan

>  <Document Journal>  (673) 
nan

>  <Document Year>  (673) 
nan

>  <SRC ID>  (673) 
7

>  <UO Units>  (673) 
UO_0000065

>  <Potential Duplicate>  (673) 
False

>  <Class>  (673) 
1

$$$$

     RDKit          2D

 26 28  0  0  0  0  0  0  0  0999 V2000
    0.0000  -10.3923    0.0000 C   0  0  0  0  0  0  0  0  0  0  0  0
    0.7500   -9.0933    0.0000 C   0  0  0  0  0  0  0  0  0  0  0  0
    2.2500   -9.0933    0.0000 C   0  0  0  0  0  0  0  0  0  0  0  0
    3.0000   -7.7942    0.0000 S   0  0  0  0  0  0  0  0  0  0  0  0
    1.7010   -7.0442    0.0000 O   0  0  0  0  0  0  0  0  0  0  0  0
    4.2990   -8.5442    0.0000 O   0  0  0  0  0  0  0  0  0  0  0  0
    3.7500   -6.4952    0.0000 N   0  0  0  0  0  0  0  0  0  0  0  0
    3.0000   -5.1962    0.0000 C   0  0  0  0  0  0  0  0  0  0  0  0
    1.5000   -5.1962    0.0000 C   0  0  0  0  0  0  0  0  0  0  0  0
    0.7500   -3.8971    0.0000 C   0  0  0  0  0  0  0  0  0  0  0  0
    1.5000   -2.5981    0.0000 C   0  0  0  0  0  0  0  0  0  0  0  0
    3.0000   -2.5981    0.0000 C   0  0  0  0  0  0  0  0  0  0  0  0
    3.7500   -3.8971    0.0000 C   0  0  0  0  0  0  0  0  0  0  0  0
    0.7500   -1.2990    0.0000 C   0  0  0  0  0  0  0  0  0  0  0  0
    1.5000    0.0000    0.0000 C   0  0  0  0  0  0  0  0  0  0  0  0
    0.7500    1.2990    0.0000 C   0  0  0  0  0  0  0  0  0  0  0  0
   -0.7500    1.2990    0.0000 C   0  0  0  0  0  0  0  0  0  0  0  0
   -1.7537    2.4138    0.0000 N   0  0  0  0  0  0  0  0  0  0  0  0
   -3.1240    1.8037    0.0000 N   0  0  0  0  0  0  0  0  0  0  0  0
   -2.9672    0.3119    0.0000 C   0  0  0  0  0  0  0  0  0  0  0  0
   -4.0819   -0.6918    0.0000 N   0  0  0  0  0  0  0  0  0  0  0  0
   -5.5085   -0.2283    0.0000 C   0  0  0  0  0  0  0  0  0  0  0  0
   -5.8204    1.2389    0.0000 O   0  0  0  0  0  0  0  0  0  0  0  0
   -6.6232   -1.2320    0.0000 C   0  0  0  0  0  0  0  0  0  0  0  0
   -1.5000    0.0000    0.0000 C   0  0  0  0  0  0  0  0  0  0  0  0
   -0.7500   -1.2990    0.0000 C   0  0  0  0  0  0  0  0  0  0  0  0
  1  2  1  0
  2  3  1  0
  3  4  1  0
  4  5  2  0
  4  6  2  0
  4  7  1  0
  7  8  1  0
  8  9  2  0
  9 10  1  0
 10 11  2  0
 11 12  1  0
 12 13  2  0
 11 14  1  0
 14 15  2  0
 15 16  1  0
 16 17  2  0
 17 18  1  0
 18 19  1  0
 19 20  2  0
 20 21  1  0
 21 22  1  0
 22 23  2  0
 22 24  1  0
 20 25  1  0
 25 26  2  0
 13  8  1  0
 26 14  1  0
 25 17  1  0
M  END
>  <Molecule>  (674) 
CHEMBL1973893

>  <Standard Type>  (674) 
Ki

>  <Standard Relation>  (674) 
=

>  <Standard Value>  (674) 
50.12

>  <Standard Units>  (674) 
nM

>  <pChEMBL Value>  (674) 
7.3

>  <Comment>  (674) 
active

>  <Compound Key>  (674) 
SID103905137

>  <Assay>  (674) 
CHEMBL1963742

>  <Assay Description>  (674) 
PUBCHEM_BIOASSAY: Navigating the Kinome. (Class of assay: other) Panel member name: JAK3

>  <BAO Format>  (674) 
assay format

>  <Target>  (674) 
CHEMBL2148

>  <Target Pref. Name>  (674) 
Tyrosine-protein kinase JAK3

>  <Target Organism>  (674) 
Homo sapiens

>  <Target Type>  (674) 
SINGLE PROTEIN

>  <Document>  (674) 
CHEMBL1201862

>  <Source>  (674) 
PubChem BioAssays

>  <Max Phase>  (674) 
0

>  <#Ro5 Violations>  (674) 
0

>  <Molecular Weight>  (674) 
372.45

>  <Ligand Efficiency BEI>  (674) 
nan

>  <Ligand Efficiency LE>  (674) 
nan

>  <Ligand Efficiency LLE>  (674) 
nan

>  <Ligand Efficiency SEI>  (674) 
nan

>  <ALogP>  (674) 
3.34

>  <Assay Organism>  (674) 
nan

>  <Assay Tissue ChEMBL ID>  (674) 
nan

>  <Assay Tissue Name>  (674) 
nan

>  <Assay Cell Type>  (674) 
nan

>  <Assay Subcellular Fraction>  (674) 
nan

>  <Organism Tax ID>  (674) 
9606

>  <BAO Format ID>  (674) 
BAO_0000019

>  <Published Type>  (674) 
nan

>  <Published Relation>  (674) 
nan

>  <Published Value>  (674) 
nan

>  <Published Units>  (674) 
nan

>  <Canonical Smiles>  (674) 
CCCS(=O)(=O)Nc1ccc(cc1)c2ccc3[nH]nc(NC(=O)C)c3c2

>  <Data Validity Comment>  (674) 
nan

>  <Document Journal>  (674) 
nan

>  <Document Year>  (674) 
nan

>  <SRC ID>  (674) 
7

>  <UO Units>  (674) 
UO_0000065

>  <Potential Duplicate>  (674) 
False

>  <Class>  (674) 
1

$$$$

     RDKit          2D

 20 22  0  0  0  0  0  0  0  0999 V2000
   -4.7197   -1.8492    0.0000 C   0  0  0  0  0  0  0  0  0  0  0  0
   -4.4078   -3.3164    0.0000 C   0  0  0  0  0  0  0  0  0  0  0  0
   -5.5225   -4.3201    0.0000 C   0  0  0  0  0  0  0  0  0  0  0  0
   -2.9812   -3.7800    0.0000 N   0  0  0  0  0  0  0  0  0  0  0  0
   -2.6694   -5.2472    0.0000 C   0  0  0  0  0  0  0  0  0  0  0  0
   -3.6731   -6.3619    0.0000 N   0  0  0  0  0  0  0  0  0  0  0  0
   -2.9231   -7.6610    0.0000 N   0  0  0  0  0  0  0  0  0  0  0  0
   -1.4558   -7.3491    0.0000 C   0  0  0  0  0  0  0  0  0  0  0  0
   -0.3411   -8.3528    0.0000 O   0  0  0  0  0  0  0  0  0  0  0  0
   -1.2990   -5.8573    0.0000 C   0  0  0  0  0  0  0  0  0  0  0  0
   -0.0000   -5.1073    0.0000 C   0  0  0  0  0  0  0  0  0  0  0  0
   -0.0000   -3.6073    0.0000 C   0  0  0  0  0  0  0  0  0  0  0  0
    1.2135   -2.7256    0.0000 C   0  0  0  0  0  0  0  0  0  0  0  0
    0.7500   -1.2990    0.0000 C   0  0  0  0  0  0  0  0  0  0  0  0
    1.5000    0.0000    0.0000 C   0  0  0  0  0  0  0  0  0  0  0  0
    0.7500    1.2990    0.0000 C   0  0  0  0  0  0  0  0  0  0  0  0
   -0.7500    1.2990    0.0000 C   0  0  0  0  0  0  0  0  0  0  0  0
   -1.5000    0.0000    0.0000 C   0  0  0  0  0  0  0  0  0  0  0  0
   -0.7500   -1.2990    0.0000 C   0  0  0  0  0  0  0  0  0  0  0  0
   -1.2135   -2.7256    0.0000 N   0  0  0  0  0  0  0  0  0  0  0  0
  1  2  1  0
  2  3  1  0
  2  4  1  0
  4  5  1  0
  5  6  2  0
  6  7  1  0
  7  8  1  0
  8  9  2  0
  8 10  1  0
 10 11  2  3
 11 12  1  0
 12 13  2  0
 13 14  1  0
 14 15  2  0
 15 16  1  0
 16 17  2  0
 17 18  1  0
 18 19  2  0
 19 20  1  0
 10  5  1  0
 20 12  1  0
 19 14  1  0
M  END
>  <Molecule>  (675) 
CHEMBL1988692

>  <Standard Type>  (675) 
Ki

>  <Standard Relation>  (675) 
>

>  <Standard Value>  (675) 
5011.87

>  <Standard Units>  (675) 
nM

>  <pChEMBL Value>  (675) 
nan

>  <Comment>  (675) 
inactive

>  <Compound Key>  (675) 
SID103905397

>  <Assay>  (675) 
CHEMBL1963742

>  <Assay Description>  (675) 
PUBCHEM_BIOASSAY: Navigating the Kinome. (Class of assay: other) Panel member name: JAK3

>  <BAO Format>  (675) 
assay format

>  <Target>  (675) 
CHEMBL2148

>  <Target Pref. Name>  (675) 
Tyrosine-protein kinase JAK3

>  <Target Organism>  (675) 
Homo sapiens

>  <Target Type>  (675) 
SINGLE PROTEIN

>  <Document>  (675) 
CHEMBL1201862

>  <Source>  (675) 
PubChem BioAssays

>  <Max Phase>  (675) 
0

>  <#Ro5 Violations>  (675) 
0

>  <Molecular Weight>  (675) 
268.32

>  <Ligand Efficiency BEI>  (675) 
nan

>  <Ligand Efficiency LE>  (675) 
nan

>  <Ligand Efficiency LLE>  (675) 
nan

>  <Ligand Efficiency SEI>  (675) 
nan

>  <ALogP>  (675) 
1.99

>  <Assay Organism>  (675) 
nan

>  <Assay Tissue ChEMBL ID>  (675) 
nan

>  <Assay Tissue Name>  (675) 
nan

>  <Assay Cell Type>  (675) 
nan

>  <Assay Subcellular Fraction>  (675) 
nan

>  <Organism Tax ID>  (675) 
9606

>  <BAO Format ID>  (675) 
BAO_0000019

>  <Published Type>  (675) 
nan

>  <Published Relation>  (675) 
nan

>  <Published Value>  (675) 
nan

>  <Published Units>  (675) 
nan

>  <Canonical Smiles>  (675) 
CC(C)NC1=NNC(=O)C1=Cc2cc3ccccc3[nH]2

>  <Data Validity Comment>  (675) 
nan

>  <Document Journal>  (675) 
nan

>  <Document Year>  (675) 
nan

>  <SRC ID>  (675) 
7

>  <UO Units>  (675) 
UO_0000065

>  <Potential Duplicate>  (675) 
False

>  <Class>  (675) 
0

$$$$

     RDKit          2D

 33 37  0  0  0  0  0  0  0  0999 V2000
    3.0000    0.0000    0.0000 C   0  0  0  0  0  0  0  0  0  0  0  0
    1.5000    0.0000    0.0000 N   0  0  0  0  0  0  0  0  0  0  0  0
    0.7500   -1.2990    0.0000 C   0  0  0  0  0  0  0  0  0  0  0  0
   -0.7500   -1.2990    0.0000 C   0  0  0  0  0  0  0  0  0  0  0  0
   -1.5000    0.0000    0.0000 N   0  0  0  0  0  0  0  0  0  0  0  0
   -0.7500    1.2990    0.0000 C   0  0  0  0  0  0  0  0  0  0  0  0
    0.7500    1.2990    0.0000 C   0  0  0  0  0  0  0  0  0  0  0  0
   -3.0000    0.0000    0.0000 C   0  0  0  0  0  0  0  0  0  0  0  0
   -3.7500    1.2990    0.0000 C   0  0  0  0  0  0  0  0  0  0  0  0
   -5.2500    1.2990    0.0000 C   0  0  0  0  0  0  0  0  0  0  0  0
   -6.0000    2.5981    0.0000 N   0  0  0  0  0  0  0  0  0  0  0  0
   -5.2500    3.8971    0.0000 C   0  0  0  0  0  0  0  0  0  0  0  0
   -5.8601    5.2674    0.0000 C   0  0  0  0  0  0  0  0  0  0  0  0
   -4.7454    6.2711    0.0000 C   0  0  0  0  0  0  0  0  0  0  0  0
   -4.9022    7.7629    0.0000 C   0  0  0  0  0  0  0  0  0  0  0  0
   -3.4463    5.5211    0.0000 N   0  0  0  0  0  0  0  0  0  0  0  0
   -3.7582    4.0539    0.0000 N   0  0  0  0  0  0  0  0  0  0  0  0
   -6.0000    0.0000    0.0000 N   0  0  0  0  0  0  0  0  0  0  0  0
   -5.2500   -1.2990    0.0000 C   0  0  0  0  0  0  0  0  0  0  0  0
   -6.0000   -2.5981    0.0000 S   0  0  0  0  0  0  0  0  0  0  0  0
   -7.5000   -2.5981    0.0000 C   0  0  0  0  0  0  0  0  0  0  0  0
   -8.2500   -1.2990    0.0000 C   0  0  0  0  0  0  0  0  0  0  0  0
   -9.7500   -1.2990    0.0000 C   0  0  0  0  0  0  0  0  0  0  0  0
  -10.5000   -2.5981    0.0000 C   0  0  0  0  0  0  0  0  0  0  0  0
  -12.0000   -2.5981    0.0000 N   0  0  0  0  0  0  0  0  0  0  0  0
  -12.7500   -1.2990    0.0000 C   0  0  0  0  0  0  0  0  0  0  0  0
  -12.0000    0.0000    0.0000 O   0  0  0  0  0  0  0  0  0  0  0  0
  -14.2500   -1.2990    0.0000 C   0  0  0  0  0  0  0  0  0  0  0  0
  -15.5490   -2.0490    0.0000 C   0  0  0  0  0  0  0  0  0  0  0  0
  -15.5490   -0.5490    0.0000 C   0  0  0  0  0  0  0  0  0  0  0  0
   -9.7500   -3.8971    0.0000 C   0  0  0  0  0  0  0  0  0  0  0  0
   -8.2500   -3.8971    0.0000 C   0  0  0  0  0  0  0  0  0  0  0  0
   -3.7500   -1.2990    0.0000 N   0  0  0  0  0  0  0  0  0  0  0  0
  1  2  1  0
  2  3  1  0
  3  4  1  0
  4  5  1  0
  5  6  1  0
  6  7  1  0
  5  8  1  0
  8  9  2  0
  9 10  1  0
 10 11  1  0
 11 12  1  0
 12 13  1  0
 13 14  2  0
 14 15  1  0
 14 16  1  0
 16 17  1  0
 10 18  2  0
 18 19  1  0
 19 20  1  0
 20 21  1  0
 21 22  2  0
 22 23  1  0
 23 24  2  0
 24 25  1  0
 25 26  1  0
 26 27  2  0
 26 28  1  0
 28 29  1  0
 29 30  1  0
 24 31  1  0
 31 32  2  0
 19 33  2  0
  7  2  1  0
 33  8  1  0
 17 12  2  0
 32 21  1  0
 30 28  1  0
M  END
>  <Molecule>  (676) 
CHEMBL572878

>  <Standard Type>  (676) 
Ki

>  <Standard Relation>  (676) 
>

>  <Standard Value>  (676) 
5011.87

>  <Standard Units>  (676) 
nM

>  <pChEMBL Value>  (676) 
nan

>  <Comment>  (676) 
inactive

>  <Compound Key>  (676) 
SID103905648

>  <Assay>  (676) 
CHEMBL1963742

>  <Assay Description>  (676) 
PUBCHEM_BIOASSAY: Navigating the Kinome. (Class of assay: other) Panel member name: JAK3

>  <BAO Format>  (676) 
assay format

>  <Target>  (676) 
CHEMBL2148

>  <Target Pref. Name>  (676) 
Tyrosine-protein kinase JAK3

>  <Target Organism>  (676) 
Homo sapiens

>  <Target Type>  (676) 
SINGLE PROTEIN

>  <Document>  (676) 
CHEMBL1201862

>  <Source>  (676) 
PubChem BioAssays

>  <Max Phase>  (676) 
2

>  <#Ro5 Violations>  (676) 
0

>  <Molecular Weight>  (676) 
464.6

>  <Ligand Efficiency BEI>  (676) 
nan

>  <Ligand Efficiency LE>  (676) 
nan

>  <Ligand Efficiency LLE>  (676) 
nan

>  <Ligand Efficiency SEI>  (676) 
nan

>  <ALogP>  (676) 
3.5

>  <Assay Organism>  (676) 
nan

>  <Assay Tissue ChEMBL ID>  (676) 
nan

>  <Assay Tissue Name>  (676) 
nan

>  <Assay Cell Type>  (676) 
nan

>  <Assay Subcellular Fraction>  (676) 
nan

>  <Organism Tax ID>  (676) 
9606

>  <BAO Format ID>  (676) 
BAO_0000019

>  <Published Type>  (676) 
nan

>  <Published Relation>  (676) 
nan

>  <Published Value>  (676) 
nan

>  <Published Units>  (676) 
nan

>  <Canonical Smiles>  (676) 
CN1CCN(CC1)c2cc(Nc3cc(C)[nH]n3)nc(Sc4ccc(NC(=O)C5CC5)cc4)n2

>  <Data Validity Comment>  (676) 
nan

>  <Document Journal>  (676) 
nan

>  <Document Year>  (676) 
nan

>  <SRC ID>  (676) 
7

>  <UO Units>  (676) 
UO_0000065

>  <Potential Duplicate>  (676) 
False

>  <Class>  (676) 
0

$$$$

     RDKit          2D

 23 26  0  0  0  0  0  0  0  0999 V2000
   -6.2961   -1.6453    0.0000 Cl  0  0  0  0  0  0  0  0  0  0  0  0
   -5.1814   -2.6490    0.0000 C   0  0  0  0  0  0  0  0  0  0  0  0
   -3.7548   -2.1855    0.0000 C   0  0  0  0  0  0  0  0  0  0  0  0
   -2.6401   -3.1891    0.0000 C   0  0  0  0  0  0  0  0  0  0  0  0
   -2.9520   -4.6564    0.0000 N   0  0  0  0  0  0  0  0  0  0  0  0
   -4.3786   -5.1199    0.0000 C   0  0  0  0  0  0  0  0  0  0  0  0
   -4.6904   -6.5871    0.0000 N   0  0  0  0  0  0  0  0  0  0  0  0
   -6.1170   -7.0506    0.0000 C   0  0  0  0  0  0  0  0  0  0  0  0
   -7.2317   -6.0469    0.0000 C   0  0  0  0  0  0  0  0  0  0  0  0
   -8.6583   -6.5105    0.0000 C   0  0  0  0  0  0  0  0  0  0  0  0
   -8.9702   -7.9777    0.0000 C   0  0  0  0  0  0  0  0  0  0  0  0
   -7.8555   -8.9814    0.0000 C   0  0  0  0  0  0  0  0  0  0  0  0
   -6.4289   -8.5179    0.0000 C   0  0  0  0  0  0  0  0  0  0  0  0
   -5.4933   -4.1162    0.0000 N   0  0  0  0  0  0  0  0  0  0  0  0
   -1.2135   -2.7256    0.0000 C   0  0  0  0  0  0  0  0  0  0  0  0
    0.0000   -3.6073    0.0000 C   0  0  0  0  0  0  0  0  0  0  0  0
    1.2135   -2.7256    0.0000 N   0  0  0  0  0  0  0  0  0  0  0  0
    0.7500   -1.2990    0.0000 C   0  0  0  0  0  0  0  0  0  0  0  0
    1.5000    0.0000    0.0000 N   0  0  0  0  0  0  0  0  0  0  0  0
    0.7500    1.2990    0.0000 C   0  0  0  0  0  0  0  0  0  0  0  0
   -0.7500    1.2990    0.0000 C   0  0  0  0  0  0  0  0  0  0  0  0
   -1.5000    0.0000    0.0000 C   0  0  0  0  0  0  0  0  0  0  0  0
   -0.7500   -1.2990    0.0000 C   0  0  0  0  0  0  0  0  0  0  0  0
  1  2  1  0
  2  3  2  0
  3  4  1  0
  4  5  2  0
  5  6  1  0
  6  7  1  0
  7  8  1  0
  8  9  1  0
  9 10  1  0
 10 11  1  0
 11 12  1  0
 12 13  1  0
  6 14  2  0
  4 15  1  0
 15 16  2  0
 16 17  1  0
 17 18  1  0
 18 19  2  0
 19 20  1  0
 20 21  2  0
 21 22  1  0
 22 23  2  0
 14  2  1  0
 13  8  1  0
 23 15  1  0
 23 18  1  0
M  END
>  <Molecule>  (677) 
CHEMBL2006439

>  <Standard Type>  (677) 
Ki

>  <Standard Relation>  (677) 
>

>  <Standard Value>  (677) 
3162.28

>  <Standard Units>  (677) 
nM

>  <pChEMBL Value>  (677) 
nan

>  <Comment>  (677) 
inactive

>  <Compound Key>  (677) 
SID103904197

>  <Assay>  (677) 
CHEMBL1963742

>  <Assay Description>  (677) 
PUBCHEM_BIOASSAY: Navigating the Kinome. (Class of assay: other) Panel member name: JAK3

>  <BAO Format>  (677) 
assay format

>  <Target>  (677) 
CHEMBL2148

>  <Target Pref. Name>  (677) 
Tyrosine-protein kinase JAK3

>  <Target Organism>  (677) 
Homo sapiens

>  <Target Type>  (677) 
SINGLE PROTEIN

>  <Document>  (677) 
CHEMBL1201862

>  <Source>  (677) 
PubChem BioAssays

>  <Max Phase>  (677) 
0

>  <#Ro5 Violations>  (677) 
0

>  <Molecular Weight>  (677) 
327.82

>  <Ligand Efficiency BEI>  (677) 
nan

>  <Ligand Efficiency LE>  (677) 
nan

>  <Ligand Efficiency LLE>  (677) 
nan

>  <Ligand Efficiency SEI>  (677) 
nan

>  <ALogP>  (677) 
4.42

>  <Assay Organism>  (677) 
nan

>  <Assay Tissue ChEMBL ID>  (677) 
nan

>  <Assay Tissue Name>  (677) 
nan

>  <Assay Cell Type>  (677) 
nan

>  <Assay Subcellular Fraction>  (677) 
nan

>  <Organism Tax ID>  (677) 
9606

>  <BAO Format ID>  (677) 
BAO_0000019

>  <Published Type>  (677) 
nan

>  <Published Relation>  (677) 
nan

>  <Published Value>  (677) 
nan

>  <Published Units>  (677) 
nan

>  <Canonical Smiles>  (677) 
Clc1cc(nc(NC2CCCCC2)n1)c3c[nH]c4ncccc34

>  <Data Validity Comment>  (677) 
nan

>  <Document Journal>  (677) 
nan

>  <Document Year>  (677) 
nan

>  <SRC ID>  (677) 
7

>  <UO Units>  (677) 
UO_0000065

>  <Potential Duplicate>  (677) 
False

>  <Class>  (677) 
0

$$$$

     RDKit          2D

 30 33  0  0  0  0  0  0  0  0999 V2000
   -4.6883    2.2939    0.0000 C   0  0  0  0  0  0  0  0  0  0  0  0
   -3.5736    1.2902    0.0000 O   0  0  0  0  0  0  0  0  0  0  0  0
   -2.1470    1.7537    0.0000 C   0  0  0  0  0  0  0  0  0  0  0  0
   -1.8351    3.2209    0.0000 C   0  0  0  0  0  0  0  0  0  0  0  0
   -0.4086    3.6844    0.0000 C   0  0  0  0  0  0  0  0  0  0  0  0
    0.7062    2.6807    0.0000 C   0  0  0  0  0  0  0  0  0  0  0  0
    2.1328    3.1443    0.0000 C   0  0  0  0  0  0  0  0  0  0  0  0
    3.2475    2.1406    0.0000 C   0  0  0  0  0  0  0  0  0  0  0  0
    4.6741    2.6041    0.0000 C   0  0  0  0  0  0  0  0  0  0  0  0
    4.9859    4.0713    0.0000 C   0  0  0  0  0  0  0  0  0  0  0  0
    6.4125    4.5348    0.0000 N   0  0  0  0  0  0  0  0  0  0  0  0
    7.5272    3.5312    0.0000 C   0  0  0  0  0  0  0  0  0  0  0  0
    7.2154    2.0639    0.0000 O   0  0  0  0  0  0  0  0  0  0  0  0
    8.9538    3.9947    0.0000 N   0  0  0  0  0  0  0  0  0  0  0  0
   10.0685    2.9910    0.0000 C   0  0  0  0  0  0  0  0  0  0  0  0
    9.7567    1.5238    0.0000 C   0  0  0  0  0  0  0  0  0  0  0  0
   10.8714    0.5201    0.0000 C   0  0  0  0  0  0  0  0  0  0  0  0
   10.5595   -0.9472    0.0000 F   0  0  0  0  0  0  0  0  0  0  0  0
   12.2980    0.9836    0.0000 C   0  0  0  0  0  0  0  0  0  0  0  0
   12.6098    2.4508    0.0000 C   0  0  0  0  0  0  0  0  0  0  0  0
   14.0364    2.9143    0.0000 F   0  0  0  0  0  0  0  0  0  0  0  0
   11.4951    3.4545    0.0000 C   0  0  0  0  0  0  0  0  0  0  0  0
    3.8712    5.0750    0.0000 C   0  0  0  0  0  0  0  0  0  0  0  0
    2.4446    4.6115    0.0000 C   0  0  0  0  0  0  0  0  0  0  0  0
    0.3943    1.2135    0.0000 C   0  0  0  0  0  0  0  0  0  0  0  0
    1.2760    0.0000    0.0000 C   0  0  0  0  0  0  0  0  0  0  0  0
    2.7760    0.0000    0.0000 N   0  0  0  0  0  0  0  0  0  0  0  0
    0.3943   -1.2135    0.0000 N   0  0  0  0  0  0  0  0  0  0  0  0
   -1.0323   -0.7500    0.0000 O   0  0  0  0  0  0  0  0  0  0  0  0
   -1.0323    0.7500    0.0000 C   0  0  0  0  0  0  0  0  0  0  0  0
  1  2  1  0
  2  3  1  0
  3  4  2  0
  4  5  1  0
  5  6  2  0
  6  7  1  0
  7  8  2  0
  8  9  1  0
  9 10  2  0
 10 11  1  0
 11 12  1  0
 12 13  2  0
 12 14  1  0
 14 15  1  0
 15 16  2  0
 16 17  1  0
 17 18  1  0
 17 19  2  0
 19 20  1  0
 20 21  1  0
 20 22  2  0
 10 23  1  0
 23 24  2  0
  6 25  1  0
 25 26  1  0
 26 27  1  0
 26 28  2  0
 28 29  1  0
 29 30  1  0
 30  3  1  0
 24  7  1  0
 22 15  1  0
 30 25  2  0
M  END
>  <Molecule>  (678) 
CHEMBL1969190

>  <Standard Type>  (678) 
Ki

>  <Standard Relation>  (678) 
>

>  <Standard Value>  (678) 
1584.89

>  <Standard Units>  (678) 
nM

>  <pChEMBL Value>  (678) 
nan

>  <Comment>  (678) 
inactive

>  <Compound Key>  (678) 
SID103904443

>  <Assay>  (678) 
CHEMBL1963742

>  <Assay Description>  (678) 
PUBCHEM_BIOASSAY: Navigating the Kinome. (Class of assay: other) Panel member name: JAK3

>  <BAO Format>  (678) 
assay format

>  <Target>  (678) 
CHEMBL2148

>  <Target Pref. Name>  (678) 
Tyrosine-protein kinase JAK3

>  <Target Organism>  (678) 
Homo sapiens

>  <Target Type>  (678) 
SINGLE PROTEIN

>  <Document>  (678) 
CHEMBL1201862

>  <Source>  (678) 
PubChem BioAssays

>  <Max Phase>  (678) 
0

>  <#Ro5 Violations>  (678) 
1

>  <Molecular Weight>  (678) 
410.38

>  <Ligand Efficiency BEI>  (678) 
nan

>  <Ligand Efficiency LE>  (678) 
nan

>  <Ligand Efficiency LLE>  (678) 
nan

>  <Ligand Efficiency SEI>  (678) 
nan

>  <ALogP>  (678) 
5.01

>  <Assay Organism>  (678) 
nan

>  <Assay Tissue ChEMBL ID>  (678) 
nan

>  <Assay Tissue Name>  (678) 
nan

>  <Assay Cell Type>  (678) 
nan

>  <Assay Subcellular Fraction>  (678) 
nan

>  <Organism Tax ID>  (678) 
9606

>  <BAO Format ID>  (678) 
BAO_0000019

>  <Published Type>  (678) 
nan

>  <Published Relation>  (678) 
nan

>  <Published Value>  (678) 
nan

>  <Published Units>  (678) 
nan

>  <Canonical Smiles>  (678) 
COc1ccc(c2ccc(NC(=O)Nc3cc(F)cc(F)c3)cc2)c4c(N)noc14

>  <Data Validity Comment>  (678) 
nan

>  <Document Journal>  (678) 
nan

>  <Document Year>  (678) 
nan

>  <SRC ID>  (678) 
7

>  <UO Units>  (678) 
UO_0000065

>  <Potential Duplicate>  (678) 
False

>  <Class>  (678) 
0

$$$$

     RDKit          2D

 18 19  0  0  0  0  0  0  0  0999 V2000
    5.2500   -1.2990    0.0000 C   0  0  0  0  0  0  0  0  0  0  0  0
    3.7500   -1.2990    0.0000 C   0  0  0  0  0  0  0  0  0  0  0  0
    3.0000    0.0000    0.0000 O   0  0  0  0  0  0  0  0  0  0  0  0
    1.5000    0.0000    0.0000 C   0  0  0  0  0  0  0  0  0  0  0  0
    0.7500   -1.2990    0.0000 C   0  0  0  0  0  0  0  0  0  0  0  0
   -0.7500   -1.2990    0.0000 C   0  0  0  0  0  0  0  0  0  0  0  0
   -1.5000    0.0000    0.0000 C   0  0  0  0  0  0  0  0  0  0  0  0
   -3.0000    0.0000    0.0000 C   0  0  0  0  0  0  0  0  0  0  0  0
   -3.7500   -1.2990    0.0000 C   0  0  0  0  0  0  0  0  0  0  0  0
   -5.2418   -1.4558    0.0000 S   0  0  0  0  0  0  0  0  0  0  0  0
   -5.5537   -2.9231    0.0000 C   0  0  0  0  0  0  0  0  0  0  0  0
   -6.9240   -3.5332    0.0000 N   0  0  0  0  0  0  0  0  0  0  0  0
   -4.2546   -3.6731    0.0000 N   0  0  0  0  0  0  0  0  0  0  0  0
   -3.1399   -2.6694    0.0000 C   0  0  0  0  0  0  0  0  0  0  0  0
   -1.6727   -2.9812    0.0000 O   0  0  0  0  0  0  0  0  0  0  0  0
   -0.7500    1.2990    0.0000 C   0  0  0  0  0  0  0  0  0  0  0  0
   -1.5000    2.5981    0.0000 O   0  0  0  0  0  0  0  0  0  0  0  0
    0.7500    1.2990    0.0000 C   0  0  0  0  0  0  0  0  0  0  0  0
  1  2  1  0
  2  3  1  0
  3  4  1  0
  4  5  2  0
  5  6  1  0
  6  7  2  0
  7  8  1  0
  8  9  2  3
  9 10  1  0
 10 11  1  0
 11 12  2  0
 11 13  1  0
 13 14  1  0
 14 15  2  0
  7 16  1  0
 16 17  1  0
 16 18  2  0
 18  4  1  0
 14  9  1  0
M  END
>  <Molecule>  (679) 
CHEMBL1971289

>  <Standard Type>  (679) 
Ki

>  <Standard Relation>  (679) 
>

>  <Standard Value>  (679) 
5011.87

>  <Standard Units>  (679) 
nM

>  <pChEMBL Value>  (679) 
nan

>  <Comment>  (679) 
inactive

>  <Compound Key>  (679) 
SID103905207

>  <Assay>  (679) 
CHEMBL1963742

>  <Assay Description>  (679) 
PUBCHEM_BIOASSAY: Navigating the Kinome. (Class of assay: other) Panel member name: JAK3

>  <BAO Format>  (679) 
assay format

>  <Target>  (679) 
CHEMBL2148

>  <Target Pref. Name>  (679) 
Tyrosine-protein kinase JAK3

>  <Target Organism>  (679) 
Homo sapiens

>  <Target Type>  (679) 
SINGLE PROTEIN

>  <Document>  (679) 
CHEMBL1201862

>  <Source>  (679) 
PubChem BioAssays

>  <Max Phase>  (679) 
0

>  <#Ro5 Violations>  (679) 
0

>  <Molecular Weight>  (679) 
264.31

>  <Ligand Efficiency BEI>  (679) 
nan

>  <Ligand Efficiency LE>  (679) 
nan

>  <Ligand Efficiency LLE>  (679) 
nan

>  <Ligand Efficiency SEI>  (679) 
nan

>  <ALogP>  (679) 
1.93

>  <Assay Organism>  (679) 
nan

>  <Assay Tissue ChEMBL ID>  (679) 
nan

>  <Assay Tissue Name>  (679) 
nan

>  <Assay Cell Type>  (679) 
nan

>  <Assay Subcellular Fraction>  (679) 
nan

>  <Organism Tax ID>  (679) 
9606

>  <BAO Format ID>  (679) 
BAO_0000019

>  <Published Type>  (679) 
nan

>  <Published Relation>  (679) 
nan

>  <Published Value>  (679) 
nan

>  <Published Units>  (679) 
nan

>  <Canonical Smiles>  (679) 
CCOc1ccc(C=C2SC(=N)NC2=O)c(O)c1

>  <Data Validity Comment>  (679) 
nan

>  <Document Journal>  (679) 
nan

>  <Document Year>  (679) 
nan

>  <SRC ID>  (679) 
7

>  <UO Units>  (679) 
UO_0000065

>  <Potential Duplicate>  (679) 
False

>  <Class>  (679) 
0

$$$$

     RDKit          2D

 29 32  0  0  0  0  0  0  0  0999 V2000
   -1.8373   -5.6601    0.0000 N   0  0  0  0  0  0  0  0  0  0  0  0
   -2.9520   -4.6564    0.0000 C   0  0  0  0  0  0  0  0  0  0  0  0
   -4.3786   -5.1199    0.0000 C   0  0  0  0  0  0  0  0  0  0  0  0
   -4.6904   -6.5871    0.0000 O   0  0  0  0  0  0  0  0  0  0  0  0
   -6.1170   -7.0506    0.0000 C   0  0  0  0  0  0  0  0  0  0  0  0
   -7.2317   -6.0469    0.0000 C   0  0  0  0  0  0  0  0  0  0  0  0
   -8.6583   -6.5105    0.0000 C   0  0  0  0  0  0  0  0  0  0  0  0
   -9.7730   -5.5068    0.0000 C   0  0  0  0  0  0  0  0  0  0  0  0
   -9.4612   -4.0396    0.0000 C   0  0  0  0  0  0  0  0  0  0  0  0
  -10.5759   -3.0359    0.0000 C   0  0  0  0  0  0  0  0  0  0  0  0
  -10.2640   -1.5686    0.0000 C   0  0  0  0  0  0  0  0  0  0  0  0
  -11.3787   -0.5649    0.0000 C   0  0  0  0  0  0  0  0  0  0  0  0
  -12.8053   -1.0285    0.0000 N   0  0  0  0  0  0  0  0  0  0  0  0
  -13.1172   -2.4957    0.0000 C   0  0  0  0  0  0  0  0  0  0  0  0
  -12.0025   -3.4994    0.0000 C   0  0  0  0  0  0  0  0  0  0  0  0
   -8.9702   -7.9777    0.0000 C   0  0  0  0  0  0  0  0  0  0  0  0
   -7.8555   -8.9814    0.0000 N   0  0  0  0  0  0  0  0  0  0  0  0
   -6.4289   -8.5179    0.0000 C   0  0  0  0  0  0  0  0  0  0  0  0
   -5.3142   -9.5216    0.0000 Cl  0  0  0  0  0  0  0  0  0  0  0  0
   -2.6401   -3.1891    0.0000 C   0  0  0  0  0  0  0  0  0  0  0  0
   -1.2135   -2.7256    0.0000 C   0  0  0  0  0  0  0  0  0  0  0  0
    0.0000   -3.6073    0.0000 C   0  0  0  0  0  0  0  0  0  0  0  0
    1.2135   -2.7256    0.0000 N   0  0  0  0  0  0  0  0  0  0  0  0
    0.7500   -1.2990    0.0000 C   0  0  0  0  0  0  0  0  0  0  0  0
    1.5000    0.0000    0.0000 C   0  0  0  0  0  0  0  0  0  0  0  0
    0.7500    1.2990    0.0000 C   0  0  0  0  0  0  0  0  0  0  0  0
   -0.7500    1.2990    0.0000 C   0  0  0  0  0  0  0  0  0  0  0  0
   -1.5000    0.0000    0.0000 C   0  0  0  0  0  0  0  0  0  0  0  0
   -0.7500   -1.2990    0.0000 C   0  0  0  0  0  0  0  0  0  0  0  0
  1  2  1  0
  2  3  1  0
  3  4  1  0
  4  5  1  0
  5  6  2  0
  6  7  1  0
  7  8  1  0
  8  9  2  3
  9 10  1  0
 10 11  2  0
 11 12  1  0
 12 13  2  0
 13 14  1  0
 14 15  2  0
  7 16  2  0
 16 17  1  0
 17 18  2  0
 18 19  1  0
  2 20  1  0
 20 21  1  0
 21 22  2  0
 22 23  1  0
 23 24  1  0
 24 25  2  0
 25 26  1  0
 26 27  2  0
 27 28  1  0
 28 29  2  0
 18  5  1  0
 15 10  1  0
 29 21  1  0
 29 24  1  0
M  END
>  <Molecule>  (680) 
CHEMBL1968245

>  <Standard Type>  (680) 
Ki

>  <Standard Relation>  (680) 
>

>  <Standard Value>  (680) 
1584.89

>  <Standard Units>  (680) 
nM

>  <pChEMBL Value>  (680) 
nan

>  <Comment>  (680) 
inactive

>  <Compound Key>  (680) 
SID103904753

>  <Assay>  (680) 
CHEMBL1963742

>  <Assay Description>  (680) 
PUBCHEM_BIOASSAY: Navigating the Kinome. (Class of assay: other) Panel member name: JAK3

>  <BAO Format>  (680) 
assay format

>  <Target>  (680) 
CHEMBL2148

>  <Target Pref. Name>  (680) 
Tyrosine-protein kinase JAK3

>  <Target Organism>  (680) 
Homo sapiens

>  <Target Type>  (680) 
SINGLE PROTEIN

>  <Document>  (680) 
CHEMBL1201862

>  <Source>  (680) 
PubChem BioAssays

>  <Max Phase>  (680) 
0

>  <#Ro5 Violations>  (680) 
0

>  <Molecular Weight>  (680) 
404.9

>  <Ligand Efficiency BEI>  (680) 
nan

>  <Ligand Efficiency LE>  (680) 
nan

>  <Ligand Efficiency LLE>  (680) 
nan

>  <Ligand Efficiency SEI>  (680) 
nan

>  <ALogP>  (680) 
4.73

>  <Assay Organism>  (680) 
nan

>  <Assay Tissue ChEMBL ID>  (680) 
nan

>  <Assay Tissue Name>  (680) 
nan

>  <Assay Cell Type>  (680) 
nan

>  <Assay Subcellular Fraction>  (680) 
nan

>  <Organism Tax ID>  (680) 
9606

>  <BAO Format ID>  (680) 
BAO_0000019

>  <Published Type>  (680) 
nan

>  <Published Relation>  (680) 
nan

>  <Published Value>  (680) 
nan

>  <Published Units>  (680) 
nan

>  <Canonical Smiles>  (680) 
NC(COc1cc(C=Cc2ccncc2)cnc1Cl)Cc3c[nH]c4ccccc34

>  <Data Validity Comment>  (680) 
nan

>  <Document Journal>  (680) 
nan

>  <Document Year>  (680) 
nan

>  <SRC ID>  (680) 
7

>  <UO Units>  (680) 
UO_0000065

>  <Potential Duplicate>  (680) 
False

>  <Class>  (680) 
0

$$$$

     RDKit          2D

 26 28  0  0  0  0  0  0  0  0999 V2000
    0.7500   -6.4952    0.0000 O   0  0  0  0  0  0  0  0  0  0  0  0
    1.5000   -5.1962    0.0000 C   0  0  0  0  0  0  0  0  0  0  0  0
    0.7500   -3.8971    0.0000 C   0  0  0  0  0  0  0  0  0  0  0  0
    1.5000   -2.5981    0.0000 C   0  0  0  0  0  0  0  0  0  0  0  0
    0.7500   -1.2990    0.0000 C   0  0  0  0  0  0  0  0  0  0  0  0
    1.5000    0.0000    0.0000 C   0  0  0  0  0  0  0  0  0  0  0  0
    0.7500    1.2990    0.0000 C   0  0  0  0  0  0  0  0  0  0  0  0
   -0.7500    1.2990    0.0000 C   0  0  0  0  0  0  0  0  0  0  0  0
   -1.5000    0.0000    0.0000 C   0  0  0  0  0  0  0  0  0  0  0  0
   -0.7500   -1.2990    0.0000 C   0  0  0  0  0  0  0  0  0  0  0  0
   -0.7500   -3.8971    0.0000 N   0  0  0  0  0  0  0  0  0  0  0  0
   -1.5000   -5.1962    0.0000 C   0  0  0  0  0  0  0  0  0  0  0  0
   -0.7500   -6.4952    0.0000 O   0  0  0  0  0  0  0  0  0  0  0  0
   -3.0000   -5.1962    0.0000 C   0  0  0  0  0  0  0  0  0  0  0  0
   -3.7500   -3.8971    0.0000 C   0  0  0  0  0  0  0  0  0  0  0  0
   -5.2500   -3.8971    0.0000 C   0  0  0  0  0  0  0  0  0  0  0  0
   -6.0000   -5.1962    0.0000 C   0  0  0  0  0  0  0  0  0  0  0  0
   -5.2500   -6.4952    0.0000 C   0  0  0  0  0  0  0  0  0  0  0  0
   -3.7500   -6.4952    0.0000 C   0  0  0  0  0  0  0  0  0  0  0  0
   -3.0000   -7.7942    0.0000 F   0  0  0  0  0  0  0  0  0  0  0  0
   -7.5000   -5.1962    0.0000 C   0  0  0  0  0  0  0  0  0  0  0  0
   -8.2500   -3.8971    0.0000 C   0  0  0  0  0  0  0  0  0  0  0  0
   -9.7500   -3.8971    0.0000 C   0  0  0  0  0  0  0  0  0  0  0  0
  -10.5000   -5.1962    0.0000 N   0  0  0  0  0  0  0  0  0  0  0  0
   -9.7500   -6.4952    0.0000 C   0  0  0  0  0  0  0  0  0  0  0  0
   -8.2500   -6.4952    0.0000 C   0  0  0  0  0  0  0  0  0  0  0  0
  1  2  1  0
  2  3  1  0
  3  4  1  0
  4  5  1  0
  5  6  2  0
  6  7  1  0
  7  8  2  0
  8  9  1  0
  9 10  2  0
  3 11  1  0
 11 12  1  0
 12 13  2  0
 12 14  1  0
 14 15  2  0
 15 16  1  0
 16 17  2  0
 17 18  1  0
 18 19  2  0
 19 20  1  0
 17 21  1  0
 21 22  2  0
 22 23  1  0
 23 24  2  0
 24 25  1  0
 25 26  2  0
 10  5  1  0
 19 14  1  0
 26 21  1  0
M  END
>  <Molecule>  (681) 
CHEMBL1969755

>  <Standard Type>  (681) 
Ki

>  <Standard Relation>  (681) 
>

>  <Standard Value>  (681) 
1584.89

>  <Standard Units>  (681) 
nM

>  <pChEMBL Value>  (681) 
nan

>  <Comment>  (681) 
inactive

>  <Compound Key>  (681) 
SID103904580

>  <Assay>  (681) 
CHEMBL1963742

>  <Assay Description>  (681) 
PUBCHEM_BIOASSAY: Navigating the Kinome. (Class of assay: other) Panel member name: JAK3

>  <BAO Format>  (681) 
assay format

>  <Target>  (681) 
CHEMBL2148

>  <Target Pref. Name>  (681) 
Tyrosine-protein kinase JAK3

>  <Target Organism>  (681) 
Homo sapiens

>  <Target Type>  (681) 
SINGLE PROTEIN

>  <Document>  (681) 
CHEMBL1201862

>  <Source>  (681) 
PubChem BioAssays

>  <Max Phase>  (681) 
0

>  <#Ro5 Violations>  (681) 
0

>  <Molecular Weight>  (681) 
350.39

>  <Ligand Efficiency BEI>  (681) 
nan

>  <Ligand Efficiency LE>  (681) 
nan

>  <Ligand Efficiency LLE>  (681) 
nan

>  <Ligand Efficiency SEI>  (681) 
nan

>  <ALogP>  (681) 
3.22

>  <Assay Organism>  (681) 
nan

>  <Assay Tissue ChEMBL ID>  (681) 
nan

>  <Assay Tissue Name>  (681) 
nan

>  <Assay Cell Type>  (681) 
nan

>  <Assay Subcellular Fraction>  (681) 
nan

>  <Organism Tax ID>  (681) 
9606

>  <BAO Format ID>  (681) 
BAO_0000019

>  <Published Type>  (681) 
nan

>  <Published Relation>  (681) 
nan

>  <Published Value>  (681) 
nan

>  <Published Units>  (681) 
nan

>  <Canonical Smiles>  (681) 
OCC(Cc1ccccc1)NC(=O)c2ccc(cc2F)c3ccncc3

>  <Data Validity Comment>  (681) 
nan

>  <Document Journal>  (681) 
nan

>  <Document Year>  (681) 
nan

>  <SRC ID>  (681) 
7

>  <UO Units>  (681) 
UO_0000065

>  <Potential Duplicate>  (681) 
False

>  <Class>  (681) 
0

$$$$

     RDKit          2D

 31 35  0  0  0  0  0  0  0  0999 V2000
    8.3301    1.0602    0.0000 C   0  0  0  0  0  0  0  0  0  0  0  0
    7.2154    2.0639    0.0000 N   0  0  0  0  0  0  0  0  0  0  0  0
    5.7888    1.6004    0.0000 C   0  0  0  0  0  0  0  0  0  0  0  0
    4.6741    2.6041    0.0000 C   0  0  0  0  0  0  0  0  0  0  0  0
    4.9859    4.0713    0.0000 N   0  0  0  0  0  0  0  0  0  0  0  0
    6.4125    4.5348    0.0000 C   0  0  0  0  0  0  0  0  0  0  0  0
    7.5272    3.5312    0.0000 C   0  0  0  0  0  0  0  0  0  0  0  0
    3.8712    5.0750    0.0000 C   0  0  0  0  0  0  0  0  0  0  0  0
    4.1831    6.5422    0.0000 C   0  0  0  0  0  0  0  0  0  0  0  0
    3.0684    7.5459    0.0000 C   0  0  0  0  0  0  0  0  0  0  0  0
    1.6418    7.0824    0.0000 C   0  0  0  0  0  0  0  0  0  0  0  0
    0.5271    8.0861    0.0000 N   0  0  0  0  0  0  0  0  0  0  0  0
   -0.8995    7.6226    0.0000 C   0  0  0  0  0  0  0  0  0  0  0  0
   -2.0143    8.6263    0.0000 N   0  0  0  0  0  0  0  0  0  0  0  0
   -3.4408    8.1628    0.0000 C   0  0  0  0  0  0  0  0  0  0  0  0
   -3.7527    6.6955    0.0000 C   0  0  0  0  0  0  0  0  0  0  0  0
   -5.1793    6.2320    0.0000 Cl  0  0  0  0  0  0  0  0  0  0  0  0
   -2.6380    5.6918    0.0000 C   0  0  0  0  0  0  0  0  0  0  0  0
   -2.9499    4.2246    0.0000 N   0  0  0  0  0  0  0  0  0  0  0  0
   -1.8351    3.2209    0.0000 C   0  0  0  0  0  0  0  0  0  0  0  0
   -0.4086    3.6844    0.0000 C   0  0  0  0  0  0  0  0  0  0  0  0
    0.7062    2.6807    0.0000 C   0  0  0  0  0  0  0  0  0  0  0  0
    0.3943    1.2135    0.0000 C   0  0  0  0  0  0  0  0  0  0  0  0
    1.2760    0.0000    0.0000 N   0  0  0  0  0  0  0  0  0  0  0  0
    0.3943   -1.2135    0.0000 N   0  0  0  0  0  0  0  0  0  0  0  0
   -1.0323   -0.7500    0.0000 C   0  0  0  0  0  0  0  0  0  0  0  0
   -1.0323    0.7500    0.0000 C   0  0  0  0  0  0  0  0  0  0  0  0
   -2.1470    1.7537    0.0000 C   0  0  0  0  0  0  0  0  0  0  0  0
   -1.2114    6.1554    0.0000 N   0  0  0  0  0  0  0  0  0  0  0  0
    1.3299    5.6152    0.0000 C   0  0  0  0  0  0  0  0  0  0  0  0
    2.4446    4.6115    0.0000 C   0  0  0  0  0  0  0  0  0  0  0  0
  1  2  1  0
  2  3  1  0
  3  4  1  0
  4  5  1  0
  5  6  1  0
  6  7  1  0
  5  8  1  0
  8  9  2  0
  9 10  1  0
 10 11  2  0
 11 12  1  0
 12 13  1  0
 13 14  2  0
 14 15  1  0
 15 16  2  0
 16 17  1  0
 16 18  1  0
 18 19  1  0
 19 20  1  0
 20 21  2  0
 21 22  1  0
 22 23  2  0
 23 24  1  0
 24 25  1  0
 25 26  2  0
 26 27  1  0
 27 28  2  0
 18 29  2  0
 11 30  1  0
 30 31  2  0
  7  2  1  0
 31  8  1  0
 29 13  1  0
 28 20  1  0
 27 23  1  0
M  END
>  <Molecule>  (682) 
CHEMBL1979690

>  <Standard Type>  (682) 
Ki

>  <Standard Relation>  (682) 
=

>  <Standard Value>  (682) 
19.95

>  <Standard Units>  (682) 
nM

>  <pChEMBL Value>  (682) 
7.7

>  <Comment>  (682) 
active

>  <Compound Key>  (682) 
SID103904406

>  <Assay>  (682) 
CHEMBL1963742

>  <Assay Description>  (682) 
PUBCHEM_BIOASSAY: Navigating the Kinome. (Class of assay: other) Panel member name: JAK3

>  <BAO Format>  (682) 
assay format

>  <Target>  (682) 
CHEMBL2148

>  <Target Pref. Name>  (682) 
Tyrosine-protein kinase JAK3

>  <Target Organism>  (682) 
Homo sapiens

>  <Target Type>  (682) 
SINGLE PROTEIN

>  <Document>  (682) 
CHEMBL1201862

>  <Source>  (682) 
PubChem BioAssays

>  <Max Phase>  (682) 
0

>  <#Ro5 Violations>  (682) 
0

>  <Molecular Weight>  (682) 
434.94

>  <Ligand Efficiency BEI>  (682) 
nan

>  <Ligand Efficiency LE>  (682) 
nan

>  <Ligand Efficiency LLE>  (682) 
nan

>  <Ligand Efficiency SEI>  (682) 
nan

>  <ALogP>  (682) 
4.25

>  <Assay Organism>  (682) 
nan

>  <Assay Tissue ChEMBL ID>  (682) 
nan

>  <Assay Tissue Name>  (682) 
nan

>  <Assay Cell Type>  (682) 
nan

>  <Assay Subcellular Fraction>  (682) 
nan

>  <Organism Tax ID>  (682) 
9606

>  <BAO Format ID>  (682) 
BAO_0000019

>  <Published Type>  (682) 
nan

>  <Published Relation>  (682) 
nan

>  <Published Value>  (682) 
nan

>  <Published Units>  (682) 
nan

>  <Canonical Smiles>  (682) 
CN1CCN(CC1)c2ccc(Nc3ncc(Cl)c(Nc4ccc5[nH]ncc5c4)n3)cc2

>  <Data Validity Comment>  (682) 
nan

>  <Document Journal>  (682) 
nan

>  <Document Year>  (682) 
nan

>  <SRC ID>  (682) 
7

>  <UO Units>  (682) 
UO_0000065

>  <Potential Duplicate>  (682) 
False

>  <Class>  (682) 
1

$$$$

     RDKit          2D

 24 26  0  0  0  0  0  0  0  0999 V2000
    4.5000    0.0000    0.0000 F   0  0  0  0  0  0  0  0  0  0  0  0
    3.0000    0.0000    0.0000 C   0  0  0  0  0  0  0  0  0  0  0  0
    3.0000   -1.5000    0.0000 F   0  0  0  0  0  0  0  0  0  0  0  0
    3.0000    1.5000    0.0000 F   0  0  0  0  0  0  0  0  0  0  0  0
    1.5000    0.0000    0.0000 C   0  0  0  0  0  0  0  0  0  0  0  0
    0.7500   -1.2990    0.0000 C   0  0  0  0  0  0  0  0  0  0  0  0
   -0.7500   -1.2990    0.0000 C   0  0  0  0  0  0  0  0  0  0  0  0
   -1.5000    0.0000    0.0000 C   0  0  0  0  0  0  0  0  0  0  0  0
   -3.0000    0.0000    0.0000 C   0  0  0  0  0  0  0  0  0  0  0  0
   -3.7500   -1.2990    0.0000 N   0  0  0  0  0  0  0  0  0  0  0  0
   -5.2500   -1.2990    0.0000 C   0  0  0  0  0  0  0  0  0  0  0  0
   -6.0000    0.0000    0.0000 O   0  0  0  0  0  0  0  0  0  0  0  0
   -6.0000   -2.5981    0.0000 N   0  0  0  0  0  0  0  0  0  0  0  0
   -7.5000   -2.5981    0.0000 C   0  0  0  0  0  0  0  0  0  0  0  0
   -8.2500   -1.2990    0.0000 C   0  0  0  0  0  0  0  0  0  0  0  0
   -9.7500   -1.2990    0.0000 N   0  0  0  0  0  0  0  0  0  0  0  0
  -10.5000   -2.5981    0.0000 C   0  0  0  0  0  0  0  0  0  0  0  0
   -9.7500   -3.8971    0.0000 C   0  0  0  0  0  0  0  0  0  0  0  0
   -8.2500   -3.8971    0.0000 N   0  0  0  0  0  0  0  0  0  0  0  0
   -3.7500    1.2990    0.0000 C   0  0  0  0  0  0  0  0  0  0  0  0
   -3.0000    2.5981    0.0000 C   0  0  0  0  0  0  0  0  0  0  0  0
   -1.5000    2.5981    0.0000 N   0  0  0  0  0  0  0  0  0  0  0  0
   -0.7500    1.2990    0.0000 C   0  0  0  0  0  0  0  0  0  0  0  0
    0.7500    1.2990    0.0000 C   0  0  0  0  0  0  0  0  0  0  0  0
  1  2  1  0
  2  3  1  0
  2  4  1  0
  2  5  1  0
  5  6  2  0
  6  7  1  0
  7  8  2  0
  8  9  1  0
  9 10  1  0
 10 11  1  0
 11 12  2  0
 11 13  1  0
 13 14  1  0
 14 15  2  0
 15 16  1  0
 16 17  2  0
 17 18  1  0
 18 19  2  0
  9 20  2  0
 20 21  1  0
 21 22  2  0
 22 23  1  0
 23 24  2  0
 24  5  1  0
 23  8  1  0
 19 14  1  0
M  END
>  <Molecule>  (683) 
CHEMBL2003817

>  <Standard Type>  (683) 
Ki

>  <Standard Relation>  (683) 
>

>  <Standard Value>  (683) 
1584.89

>  <Standard Units>  (683) 
nM

>  <pChEMBL Value>  (683) 
nan

>  <Comment>  (683) 
inactive

>  <Compound Key>  (683) 
SID103904890

>  <Assay>  (683) 
CHEMBL1963742

>  <Assay Description>  (683) 
PUBCHEM_BIOASSAY: Navigating the Kinome. (Class of assay: other) Panel member name: JAK3

>  <BAO Format>  (683) 
assay format

>  <Target>  (683) 
CHEMBL2148

>  <Target Pref. Name>  (683) 
Tyrosine-protein kinase JAK3

>  <Target Organism>  (683) 
Homo sapiens

>  <Target Type>  (683) 
SINGLE PROTEIN

>  <Document>  (683) 
CHEMBL1201862

>  <Source>  (683) 
PubChem BioAssays

>  <Max Phase>  (683) 
0

>  <#Ro5 Violations>  (683) 
0

>  <Molecular Weight>  (683) 
333.27

>  <Ligand Efficiency BEI>  (683) 
nan

>  <Ligand Efficiency LE>  (683) 
nan

>  <Ligand Efficiency LLE>  (683) 
nan

>  <Ligand Efficiency SEI>  (683) 
nan

>  <ALogP>  (683) 
3.69

>  <Assay Organism>  (683) 
nan

>  <Assay Tissue ChEMBL ID>  (683) 
nan

>  <Assay Tissue Name>  (683) 
nan

>  <Assay Cell Type>  (683) 
nan

>  <Assay Subcellular Fraction>  (683) 
nan

>  <Organism Tax ID>  (683) 
9606

>  <BAO Format ID>  (683) 
BAO_0000019

>  <Published Type>  (683) 
nan

>  <Published Relation>  (683) 
nan

>  <Published Value>  (683) 
nan

>  <Published Units>  (683) 
nan

>  <Canonical Smiles>  (683) 
FC(F)(F)c1ccc2c(NC(=O)Nc3cnccn3)ccnc2c1

>  <Data Validity Comment>  (683) 
nan

>  <Document Journal>  (683) 
nan

>  <Document Year>  (683) 
nan

>  <SRC ID>  (683) 
7

>  <UO Units>  (683) 
UO_0000065

>  <Potential Duplicate>  (683) 
False

>  <Class>  (683) 
0

$$$$

     RDKit          2D

 32 36  0  0  0  0  0  0  0  0999 V2000
  -10.7086   -9.9084    0.0000 C   0  0  0  0  0  0  0  0  0  0  0  0
  -10.3968   -8.4412    0.0000 N   0  0  0  0  0  0  0  0  0  0  0  0
   -8.9702   -7.9777    0.0000 C   0  0  0  0  0  0  0  0  0  0  0  0
   -8.6583   -6.5105    0.0000 C   0  0  0  0  0  0  0  0  0  0  0  0
   -9.7730   -5.5068    0.0000 N   0  0  0  0  0  0  0  0  0  0  0  0
  -11.1996   -5.9703    0.0000 C   0  0  0  0  0  0  0  0  0  0  0  0
  -11.5115   -7.4375    0.0000 C   0  0  0  0  0  0  0  0  0  0  0  0
   -9.4612   -4.0396    0.0000 C   0  0  0  0  0  0  0  0  0  0  0  0
  -10.5759   -3.0359    0.0000 C   0  0  0  0  0  0  0  0  0  0  0  0
  -10.2640   -1.5686    0.0000 C   0  0  0  0  0  0  0  0  0  0  0  0
   -8.8374   -1.1051    0.0000 C   0  0  0  0  0  0  0  0  0  0  0  0
   -7.7227   -2.1088    0.0000 C   0  0  0  0  0  0  0  0  0  0  0  0
   -6.2961   -1.6453    0.0000 N   0  0  0  0  0  0  0  0  0  0  0  0
   -5.1814   -2.6490    0.0000 C   0  0  0  0  0  0  0  0  0  0  0  0
   -5.4933   -4.1162    0.0000 N   0  0  0  0  0  0  0  0  0  0  0  0
   -4.3786   -5.1199    0.0000 C   0  0  0  0  0  0  0  0  0  0  0  0
   -2.9520   -4.6564    0.0000 C   0  0  0  0  0  0  0  0  0  0  0  0
   -2.6401   -3.1891    0.0000 C   0  0  0  0  0  0  0  0  0  0  0  0
   -3.7548   -2.1855    0.0000 N   0  0  0  0  0  0  0  0  0  0  0  0
   -1.2135   -2.7256    0.0000 C   0  0  0  0  0  0  0  0  0  0  0  0
   -0.7500   -1.2990    0.0000 C   0  0  0  0  0  0  0  0  0  0  0  0
    0.7500   -1.2990    0.0000 N   0  0  0  0  0  0  0  0  0  0  0  0
    1.2135   -2.7256    0.0000 C   0  0  0  0  0  0  0  0  0  0  0  0
    2.5838   -3.3357    0.0000 C   0  0  0  0  0  0  0  0  0  0  0  0
    2.7406   -4.8275    0.0000 C   0  0  0  0  0  0  0  0  0  0  0  0
    1.5271   -5.7092    0.0000 C   0  0  0  0  0  0  0  0  0  0  0  0
    0.1568   -5.0991    0.0000 C   0  0  0  0  0  0  0  0  0  0  0  0
   -0.0000   -3.6073    0.0000 N   0  0  0  0  0  0  0  0  0  0  0  0
   -1.6317   -0.0855    0.0000 C   0  0  0  0  0  0  0  0  0  0  0  0
   -3.1235   -0.2423    0.0000 O   0  0  0  0  0  0  0  0  0  0  0  0
   -1.0216    1.2848    0.0000 N   0  0  0  0  0  0  0  0  0  0  0  0
   -8.0346   -3.5760    0.0000 C   0  0  0  0  0  0  0  0  0  0  0  0
  1  2  1  0
  2  3  1  0
  3  4  1  0
  4  5  1  0
  5  6  1  0
  6  7  1  0
  5  8  1  0
  8  9  2  0
  9 10  1  0
 10 11  2  0
 11 12  1  0
 12 13  1  0
 13 14  1  0
 14 15  2  0
 15 16  1  0
 16 17  2  0
 17 18  1  0
 18 19  2  0
 18 20  1  0
 20 21  2  0
 21 22  1  0
 22 23  2  0
 23 24  1  0
 24 25  2  0
 25 26  1  0
 26 27  2  0
 27 28  1  0
 21 29  1  0
 29 30  2  0
 29 31  1  0
 12 32  2  0
  7  2  1  0
 32  8  1  0
 19 14  1  0
 28 20  1  0
 28 23  1  0
M  END
>  <Molecule>  (684) 
CHEMBL1971245

>  <Standard Type>  (684) 
Ki

>  <Standard Relation>  (684) 
>

>  <Standard Value>  (684) 
1584.89

>  <Standard Units>  (684) 
nM

>  <pChEMBL Value>  (684) 
nan

>  <Comment>  (684) 
inactive

>  <Compound Key>  (684) 
SID103904422

>  <Assay>  (684) 
CHEMBL1963742

>  <Assay Description>  (684) 
PUBCHEM_BIOASSAY: Navigating the Kinome. (Class of assay: other) Panel member name: JAK3

>  <BAO Format>  (684) 
assay format

>  <Target>  (684) 
CHEMBL2148

>  <Target Pref. Name>  (684) 
Tyrosine-protein kinase JAK3

>  <Target Organism>  (684) 
Homo sapiens

>  <Target Type>  (684) 
SINGLE PROTEIN

>  <Document>  (684) 
CHEMBL1201862

>  <Source>  (684) 
PubChem BioAssays

>  <Max Phase>  (684) 
0

>  <#Ro5 Violations>  (684) 
0

>  <Molecular Weight>  (684) 
428.5

>  <Ligand Efficiency BEI>  (684) 
nan

>  <Ligand Efficiency LE>  (684) 
nan

>  <Ligand Efficiency LLE>  (684) 
nan

>  <Ligand Efficiency SEI>  (684) 
nan

>  <ALogP>  (684) 
2.39

>  <Assay Organism>  (684) 
nan

>  <Assay Tissue ChEMBL ID>  (684) 
nan

>  <Assay Tissue Name>  (684) 
nan

>  <Assay Cell Type>  (684) 
nan

>  <Assay Subcellular Fraction>  (684) 
nan

>  <Organism Tax ID>  (684) 
9606

>  <BAO Format ID>  (684) 
BAO_0000019

>  <Published Type>  (684) 
nan

>  <Published Relation>  (684) 
nan

>  <Published Value>  (684) 
nan

>  <Published Units>  (684) 
nan

>  <Canonical Smiles>  (684) 
CN1CCN(CC1)c2cccc(Nc3nccc(n3)c4c(nc5ccccn45)C(=O)N)c2

>  <Data Validity Comment>  (684) 
nan

>  <Document Journal>  (684) 
nan

>  <Document Year>  (684) 
nan

>  <SRC ID>  (684) 
7

>  <UO Units>  (684) 
UO_0000065

>  <Potential Duplicate>  (684) 
False

>  <Class>  (684) 
0

$$$$

     RDKit          2D

 25 27  0  0  0  0  0  0  0  0999 V2000
    4.5000    0.0000    0.0000 F   0  0  0  0  0  0  0  0  0  0  0  0
    3.0000    0.0000    0.0000 C   0  0  0  0  0  0  0  0  0  0  0  0
    3.0000   -1.5000    0.0000 F   0  0  0  0  0  0  0  0  0  0  0  0
    3.0000    1.5000    0.0000 F   0  0  0  0  0  0  0  0  0  0  0  0
    1.5000    0.0000    0.0000 C   0  0  0  0  0  0  0  0  0  0  0  0
    0.7500   -1.2990    0.0000 C   0  0  0  0  0  0  0  0  0  0  0  0
   -0.7500   -1.2990    0.0000 C   0  0  0  0  0  0  0  0  0  0  0  0
   -1.5000    0.0000    0.0000 C   0  0  0  0  0  0  0  0  0  0  0  0
   -0.7500    1.2990    0.0000 C   0  0  0  0  0  0  0  0  0  0  0  0
   -1.5000    2.5981    0.0000 C   0  0  0  0  0  0  0  0  0  0  0  0
   -0.7500    3.8971    0.0000 N   0  0  0  0  0  0  0  0  0  0  0  0
   -1.5000    5.1962    0.0000 C   0  0  0  0  0  0  0  0  0  0  0  0
   -1.1118    6.6450    0.0000 C   0  0  0  0  0  0  0  0  0  0  0  0
    0.1873    7.3950    0.0000 N   0  0  0  0  0  0  0  0  0  0  0  0
    1.4863    6.6450    0.0000 C   0  0  0  0  0  0  0  0  0  0  0  0
    1.4863    5.1450    0.0000 C   0  0  0  0  0  0  0  0  0  0  0  0
    2.7853    4.3950    0.0000 C   0  0  0  0  0  0  0  0  0  0  0  0
    4.0844    5.1450    0.0000 N   0  0  0  0  0  0  0  0  0  0  0  0
    4.0844    6.6450    0.0000 C   0  0  0  0  0  0  0  0  0  0  0  0
    2.7853    7.3950    0.0000 C   0  0  0  0  0  0  0  0  0  0  0  0
   -2.5607    7.0333    0.0000 C   0  0  0  0  0  0  0  0  0  0  0  0
   -3.3107    8.3323    0.0000 O   0  0  0  0  0  0  0  0  0  0  0  0
   -2.9489    5.5844    0.0000 C   0  0  0  0  0  0  0  0  0  0  0  0
   -4.2479    4.8344    0.0000 O   0  0  0  0  0  0  0  0  0  0  0  0
    0.7500    1.2990    0.0000 C   0  0  0  0  0  0  0  0  0  0  0  0
  1  2  1  0
  2  3  1  0
  2  4  1  0
  2  5  1  0
  5  6  2  0
  6  7  1  0
  7  8  2  0
  8  9  1  0
  9 10  1  0
 10 11  1  0
 11 12  1  0
 12 13  2  0
 13 14  1  0
 14 15  1  0
 15 16  2  0
 16 17  1  0
 17 18  2  0
 18 19  1  0
 19 20  2  0
 13 21  1  0
 21 22  2  0
 21 23  1  0
 23 24  2  0
  9 25  2  0
 25  5  1  0
 23 12  1  0
 20 15  1  0
M  END
>  <Molecule>  (685) 
CHEMBL1979252

>  <Standard Type>  (685) 
Ki

>  <Standard Relation>  (685) 
>

>  <Standard Value>  (685) 
1584.89

>  <Standard Units>  (685) 
nM

>  <pChEMBL Value>  (685) 
nan

>  <Comment>  (685) 
inactive

>  <Compound Key>  (685) 
SID103905144

>  <Assay>  (685) 
CHEMBL1963742

>  <Assay Description>  (685) 
PUBCHEM_BIOASSAY: Navigating the Kinome. (Class of assay: other) Panel member name: JAK3

>  <BAO Format>  (685) 
assay format

>  <Target>  (685) 
CHEMBL2148

>  <Target Pref. Name>  (685) 
Tyrosine-protein kinase JAK3

>  <Target Organism>  (685) 
Homo sapiens

>  <Target Type>  (685) 
SINGLE PROTEIN

>  <Document>  (685) 
CHEMBL1201862

>  <Source>  (685) 
PubChem BioAssays

>  <Max Phase>  (685) 
0

>  <#Ro5 Violations>  (685) 
0

>  <Molecular Weight>  (685) 
347.3

>  <Ligand Efficiency BEI>  (685) 
nan

>  <Ligand Efficiency LE>  (685) 
nan

>  <Ligand Efficiency LLE>  (685) 
nan

>  <Ligand Efficiency SEI>  (685) 
nan

>  <ALogP>  (685) 
3.05

>  <Assay Organism>  (685) 
nan

>  <Assay Tissue ChEMBL ID>  (685) 
nan

>  <Assay Tissue Name>  (685) 
nan

>  <Assay Cell Type>  (685) 
nan

>  <Assay Subcellular Fraction>  (685) 
nan

>  <Organism Tax ID>  (685) 
9606

>  <BAO Format ID>  (685) 
BAO_0000019

>  <Published Type>  (685) 
nan

>  <Published Relation>  (685) 
nan

>  <Published Value>  (685) 
nan

>  <Published Units>  (685) 
nan

>  <Canonical Smiles>  (685) 
FC(F)(F)c1cccc(CNC2=C(Nc3ccncc3)C(=O)C2=O)c1

>  <Data Validity Comment>  (685) 
nan

>  <Document Journal>  (685) 
nan

>  <Document Year>  (685) 
nan

>  <SRC ID>  (685) 
7

>  <UO Units>  (685) 
UO_0000065

>  <Potential Duplicate>  (685) 
False

>  <Class>  (685) 
0

$$$$

     RDKit          2D

 27 30  0  0  0  0  0  0  0  0999 V2000
    9.6612    4.5113    0.0000 C   0  0  0  0  0  0  0  0  0  0  0  0
    8.6575    5.6260    0.0000 N   0  0  0  0  0  0  0  0  0  0  0  0
    9.1210    7.0526    0.0000 C   0  0  0  0  0  0  0  0  0  0  0  0
    7.1902    5.3142    0.0000 C   0  0  0  0  0  0  0  0  0  0  0  0
    6.7267    3.8876    0.0000 C   0  0  0  0  0  0  0  0  0  0  0  0
    5.2595    3.5757    0.0000 C   0  0  0  0  0  0  0  0  0  0  0  0
    4.2558    4.6904    0.0000 C   0  0  0  0  0  0  0  0  0  0  0  0
    2.7886    4.3786    0.0000 C   0  0  0  0  0  0  0  0  0  0  0  0
    2.3250    2.9520    0.0000 N   0  0  0  0  0  0  0  0  0  0  0  0
    0.8578    2.6401    0.0000 C   0  0  0  0  0  0  0  0  0  0  0  0
   -0.1459    3.7548    0.0000 O   0  0  0  0  0  0  0  0  0  0  0  0
    0.3943    1.2135    0.0000 C   0  0  0  0  0  0  0  0  0  0  0  0
    1.2760    0.0000    0.0000 C   0  0  0  0  0  0  0  0  0  0  0  0
    0.3943   -1.2135    0.0000 C   0  0  0  0  0  0  0  0  0  0  0  0
    0.3943   -2.7135    0.0000 C   0  0  0  0  0  0  0  0  0  0  0  0
   -1.0323   -3.1771    0.0000 N   0  0  0  0  0  0  0  0  0  0  0  0
   -1.9140   -1.9635    0.0000 N   0  0  0  0  0  0  0  0  0  0  0  0
   -1.0323   -0.7500    0.0000 C   0  0  0  0  0  0  0  0  0  0  0  0
   -1.0323    0.7500    0.0000 S   0  0  0  0  0  0  0  0  0  0  0  0
    1.6078   -3.5952    0.0000 C   0  0  0  0  0  0  0  0  0  0  0  0
    1.4510   -5.0870    0.0000 C   0  0  0  0  0  0  0  0  0  0  0  0
    2.6646   -5.9687    0.0000 C   0  0  0  0  0  0  0  0  0  0  0  0
    4.0349   -5.3586    0.0000 C   0  0  0  0  0  0  0  0  0  0  0  0
    4.1917   -3.8668    0.0000 C   0  0  0  0  0  0  0  0  0  0  0  0
    2.9781   -2.9851    0.0000 C   0  0  0  0  0  0  0  0  0  0  0  0
    4.7193    6.1170    0.0000 C   0  0  0  0  0  0  0  0  0  0  0  0
    6.1865    6.4289    0.0000 C   0  0  0  0  0  0  0  0  0  0  0  0
  1  2  1  0
  2  3  1  0
  2  4  1  0
  4  5  2  0
  5  6  1  0
  6  7  2  0
  7  8  1  0
  8  9  1  0
  9 10  1  0
 10 11  2  0
 10 12  1  0
 12 13  2  0
 13 14  1  0
 14 15  1  0
 15 16  2  0
 16 17  1  0
 17 18  1  0
 18 19  1  0
 15 20  1  0
 20 21  2  0
 21 22  1  0
 22 23  2  0
 23 24  1  0
 24 25  2  0
  7 26  1  0
 26 27  2  0
 27  4  1  0
 19 12  1  0
 18 14  2  0
 25 20  1  0
M  END
>  <Molecule>  (686) 
CHEMBL1984367

>  <Standard Type>  (686) 
Ki

>  <Standard Relation>  (686) 
>

>  <Standard Value>  (686) 
1584.89

>  <Standard Units>  (686) 
nM

>  <pChEMBL Value>  (686) 
nan

>  <Comment>  (686) 
inactive

>  <Compound Key>  (686) 
SID103905001

>  <Assay>  (686) 
CHEMBL1963742

>  <Assay Description>  (686) 
PUBCHEM_BIOASSAY: Navigating the Kinome. (Class of assay: other) Panel member name: JAK3

>  <BAO Format>  (686) 
assay format

>  <Target>  (686) 
CHEMBL2148

>  <Target Pref. Name>  (686) 
Tyrosine-protein kinase JAK3

>  <Target Organism>  (686) 
Homo sapiens

>  <Target Type>  (686) 
SINGLE PROTEIN

>  <Document>  (686) 
CHEMBL1201862

>  <Source>  (686) 
PubChem BioAssays

>  <Max Phase>  (686) 
0

>  <#Ro5 Violations>  (686) 
0

>  <Molecular Weight>  (686) 
376.49

>  <Ligand Efficiency BEI>  (686) 
nan

>  <Ligand Efficiency LE>  (686) 
nan

>  <Ligand Efficiency LLE>  (686) 
nan

>  <Ligand Efficiency SEI>  (686) 
nan

>  <ALogP>  (686) 
4.29

>  <Assay Organism>  (686) 
nan

>  <Assay Tissue ChEMBL ID>  (686) 
nan

>  <Assay Tissue Name>  (686) 
nan

>  <Assay Cell Type>  (686) 
nan

>  <Assay Subcellular Fraction>  (686) 
nan

>  <Organism Tax ID>  (686) 
9606

>  <BAO Format ID>  (686) 
BAO_0000019

>  <Published Type>  (686) 
nan

>  <Published Relation>  (686) 
nan

>  <Published Value>  (686) 
nan

>  <Published Units>  (686) 
nan

>  <Canonical Smiles>  (686) 
CN(C)c1ccc(CNC(=O)c2cc3c(n[nH]c3s2)c4ccccc4)cc1

>  <Data Validity Comment>  (686) 
nan

>  <Document Journal>  (686) 
nan

>  <Document Year>  (686) 
nan

>  <SRC ID>  (686) 
7

>  <UO Units>  (686) 
UO_0000065

>  <Potential Duplicate>  (686) 
False

>  <Class>  (686) 
0

$$$$

     RDKit          2D

 22 25  0  0  0  0  0  0  0  0999 V2000
   -6.0579   -8.6166    0.0000 O   0  0  0  0  0  0  0  0  0  0  0  0
   -4.6384   -8.1318    0.0000 N   0  0  0  0  0  0  0  0  0  0  0  0
   -3.5088   -9.1187    0.0000 O   0  0  0  0  0  0  0  0  0  0  0  0
   -4.3485   -6.6601    0.0000 C   0  0  0  0  0  0  0  0  0  0  0  0
   -5.4781   -5.6732    0.0000 C   0  0  0  0  0  0  0  0  0  0  0  0
   -5.1882   -4.2014    0.0000 C   0  0  0  0  0  0  0  0  0  0  0  0
   -3.7687   -3.7166    0.0000 C   0  0  0  0  0  0  0  0  0  0  0  0
   -3.1792   -2.3373    0.0000 N   0  0  0  0  0  0  0  0  0  0  0  0
   -1.6852   -2.4718    0.0000 C   0  0  0  0  0  0  0  0  0  0  0  0
   -1.3515   -3.9342    0.0000 C   0  0  0  0  0  0  0  0  0  0  0  0
    0.0000   -4.5850    0.0000 C   0  0  0  0  0  0  0  0  0  0  0  0
    1.3515   -3.9342    0.0000 C   0  0  0  0  0  0  0  0  0  0  0  0
    2.5242   -4.8694    0.0000 O   0  0  0  0  0  0  0  0  0  0  0  0
    1.6852   -2.4718    0.0000 N   0  0  0  0  0  0  0  0  0  0  0  0
    0.7500   -1.2990    0.0000 C   0  0  0  0  0  0  0  0  0  0  0  0
    1.5000    0.0000    0.0000 C   0  0  0  0  0  0  0  0  0  0  0  0
    0.7500    1.2990    0.0000 C   0  0  0  0  0  0  0  0  0  0  0  0
   -0.7500    1.2990    0.0000 C   0  0  0  0  0  0  0  0  0  0  0  0
   -1.5000    0.0000    0.0000 C   0  0  0  0  0  0  0  0  0  0  0  0
   -0.7500   -1.2990    0.0000 C   0  0  0  0  0  0  0  0  0  0  0  0
   -2.6391   -4.7035    0.0000 C   0  0  0  0  0  0  0  0  0  0  0  0
   -2.9290   -6.1752    0.0000 C   0  0  0  0  0  0  0  0  0  0  0  0
  1  2  1  0
  2  3  2  0
  2  4  1  0
  4  5  2  0
  5  6  1  0
  6  7  2  0
  7  8  1  0
  8  9  1  0
  9 10  2  0
 10 11  1  0
 11 12  1  0
 12 13  2  0
 12 14  1  0
 14 15  1  0
 15 16  2  0
 16 17  1  0
 17 18  2  0
 18 19  1  0
 19 20  2  0
 10 21  1  0
 21 22  2  0
 22  4  1  0
 21  7  1  0
 20  9  1  0
 20 15  1  0
M  CHG  2   1  -1   2   1
M  END
>  <Molecule>  (687) 
CHEMBL50894

>  <Standard Type>  (687) 
Ki

>  <Standard Relation>  (687) 
>

>  <Standard Value>  (687) 
2511.89

>  <Standard Units>  (687) 
nM

>  <pChEMBL Value>  (687) 
nan

>  <Comment>  (687) 
inactive

>  <Compound Key>  (687) 
SID103905621

>  <Assay>  (687) 
CHEMBL1963742

>  <Assay Description>  (687) 
PUBCHEM_BIOASSAY: Navigating the Kinome. (Class of assay: other) Panel member name: JAK3

>  <BAO Format>  (687) 
assay format

>  <Target>  (687) 
CHEMBL2148

>  <Target Pref. Name>  (687) 
Tyrosine-protein kinase JAK3

>  <Target Organism>  (687) 
Homo sapiens

>  <Target Type>  (687) 
SINGLE PROTEIN

>  <Document>  (687) 
CHEMBL1201862

>  <Source>  (687) 
PubChem BioAssays

>  <Max Phase>  (687) 
0

>  <#Ro5 Violations>  (687) 
0

>  <Molecular Weight>  (687) 
293.28

>  <Ligand Efficiency BEI>  (687) 
nan

>  <Ligand Efficiency LE>  (687) 
nan

>  <Ligand Efficiency LLE>  (687) 
nan

>  <Ligand Efficiency SEI>  (687) 
nan

>  <ALogP>  (687) 
3.24

>  <Assay Organism>  (687) 
nan

>  <Assay Tissue ChEMBL ID>  (687) 
nan

>  <Assay Tissue Name>  (687) 
nan

>  <Assay Cell Type>  (687) 
nan

>  <Assay Subcellular Fraction>  (687) 
nan

>  <Organism Tax ID>  (687) 
9606

>  <BAO Format ID>  (687) 
BAO_0000019

>  <Published Type>  (687) 
nan

>  <Published Relation>  (687) 
nan

>  <Published Value>  (687) 
nan

>  <Published Units>  (687) 
nan

>  <Canonical Smiles>  (687) 
[O-][N+](=O)c1ccc2[nH]c3c(CC(=O)Nc4ccccc34)c2c1

>  <Data Validity Comment>  (687) 
nan

>  <Document Journal>  (687) 
nan

>  <Document Year>  (687) 
nan

>  <SRC ID>  (687) 
7

>  <UO Units>  (687) 
UO_0000065

>  <Potential Duplicate>  (687) 
False

>  <Class>  (687) 
0

$$$$

     RDKit          2D

 26 29  0  0  0  0  0  0  0  0999 V2000
   -8.2500   -6.4952    0.0000 C   0  0  0  0  0  0  0  0  0  0  0  0
   -7.5000   -5.1962    0.0000 C   0  0  0  0  0  0  0  0  0  0  0  0
   -8.2500   -3.8971    0.0000 C   0  0  0  0  0  0  0  0  0  0  0  0
   -7.5000   -2.5981    0.0000 C   0  0  0  0  0  0  0  0  0  0  0  0
   -6.0000   -2.5981    0.0000 C   0  0  0  0  0  0  0  0  0  0  0  0
   -5.2500   -1.2990    0.0000 C   0  0  0  0  0  0  0  0  0  0  0  0
   -5.2500   -3.8971    0.0000 C   0  0  0  0  0  0  0  0  0  0  0  0
   -3.7500   -3.8971    0.0000 N   0  0  0  0  0  0  0  0  0  0  0  0
   -3.0000   -2.5981    0.0000 C   0  0  0  0  0  0  0  0  0  0  0  0
   -3.7500   -1.2990    0.0000 O   0  0  0  0  0  0  0  0  0  0  0  0
   -1.5000   -2.5981    0.0000 C   0  0  0  0  0  0  0  0  0  0  0  0
   -0.7500   -3.8971    0.0000 C   0  0  0  0  0  0  0  0  0  0  0  0
    0.7500   -3.8971    0.0000 C   0  0  0  0  0  0  0  0  0  0  0  0
    1.5000   -2.5981    0.0000 N   0  0  0  0  0  0  0  0  0  0  0  0
    0.7500   -1.2990    0.0000 C   0  0  0  0  0  0  0  0  0  0  0  0
    1.5000    0.0000    0.0000 C   0  0  0  0  0  0  0  0  0  0  0  0
    0.7500    1.2990    0.0000 C   0  0  0  0  0  0  0  0  0  0  0  0
   -0.7500    1.2990    0.0000 C   0  0  0  0  0  0  0  0  0  0  0  0
   -1.5000    0.0000    0.0000 C   0  0  0  0  0  0  0  0  0  0  0  0
   -0.7500   -1.2990    0.0000 C   0  0  0  0  0  0  0  0  0  0  0  0
    1.5000   -5.1962    0.0000 C   0  0  0  0  0  0  0  0  0  0  0  0
    2.9918   -5.3529    0.0000 O   0  0  0  0  0  0  0  0  0  0  0  0
    3.3037   -6.8202    0.0000 C   0  0  0  0  0  0  0  0  0  0  0  0
    2.0046   -7.5702    0.0000 C   0  0  0  0  0  0  0  0  0  0  0  0
    0.8899   -6.5665    0.0000 C   0  0  0  0  0  0  0  0  0  0  0  0
   -6.0000   -5.1962    0.0000 C   0  0  0  0  0  0  0  0  0  0  0  0
  1  2  1  0
  2  3  2  0
  3  4  1  0
  4  5  2  0
  5  6  1  0
  5  7  1  0
  7  8  1  0
  8  9  1  0
  9 10  2  0
  9 11  1  0
 11 12  2  0
 12 13  1  0
 13 14  2  0
 14 15  1  0
 15 16  2  0
 16 17  1  0
 17 18  2  0
 18 19  1  0
 19 20  2  0
 13 21  1  0
 21 22  1  0
 22 23  1  0
 23 24  2  0
 24 25  1  0
  7 26  2  0
 26  2  1  0
 20 11  1  0
 20 15  1  0
 25 21  2  0
M  END
>  <Molecule>  (688) 
CHEMBL1984296

>  <Standard Type>  (688) 
Ki

>  <Standard Relation>  (688) 
>

>  <Standard Value>  (688) 
5011.87

>  <Standard Units>  (688) 
nM

>  <pChEMBL Value>  (688) 
nan

>  <Comment>  (688) 
inactive

>  <Compound Key>  (688) 
SID103905317

>  <Assay>  (688) 
CHEMBL1963742

>  <Assay Description>  (688) 
PUBCHEM_BIOASSAY: Navigating the Kinome. (Class of assay: other) Panel member name: JAK3

>  <BAO Format>  (688) 
assay format

>  <Target>  (688) 
CHEMBL2148

>  <Target Pref. Name>  (688) 
Tyrosine-protein kinase JAK3

>  <Target Organism>  (688) 
Homo sapiens

>  <Target Type>  (688) 
SINGLE PROTEIN

>  <Document>  (688) 
CHEMBL1201862

>  <Source>  (688) 
PubChem BioAssays

>  <Max Phase>  (688) 
0

>  <#Ro5 Violations>  (688) 
1

>  <Molecular Weight>  (688) 
342.4

>  <Ligand Efficiency BEI>  (688) 
nan

>  <Ligand Efficiency LE>  (688) 
nan

>  <Ligand Efficiency LLE>  (688) 
nan

>  <Ligand Efficiency SEI>  (688) 
nan

>  <ALogP>  (688) 
5.36

>  <Assay Organism>  (688) 
nan

>  <Assay Tissue ChEMBL ID>  (688) 
nan

>  <Assay Tissue Name>  (688) 
nan

>  <Assay Cell Type>  (688) 
nan

>  <Assay Subcellular Fraction>  (688) 
nan

>  <Organism Tax ID>  (688) 
9606

>  <BAO Format ID>  (688) 
BAO_0000019

>  <Published Type>  (688) 
nan

>  <Published Relation>  (688) 
nan

>  <Published Value>  (688) 
nan

>  <Published Units>  (688) 
nan

>  <Canonical Smiles>  (688) 
Cc1ccc(C)c(NC(=O)c2cc(nc3ccccc23)c4occc4)c1

>  <Data Validity Comment>  (688) 
nan

>  <Document Journal>  (688) 
nan

>  <Document Year>  (688) 
nan

>  <SRC ID>  (688) 
7

>  <UO Units>  (688) 
UO_0000065

>  <Potential Duplicate>  (688) 
False

>  <Class>  (688) 
0

$$$$

     RDKit          2D

 36 40  0  0  0  0  0  0  0  0999 V2000
   -1.8373   -5.6601    0.0000 N   0  0  0  0  0  0  0  0  0  0  0  0
   -2.9520   -4.6564    0.0000 C   0  0  0  0  0  0  0  0  0  0  0  0
   -4.3786   -5.1199    0.0000 C   0  0  0  0  0  0  0  0  0  0  0  0
   -4.6904   -6.5871    0.0000 O   0  0  0  0  0  0  0  0  0  0  0  0
   -6.1170   -7.0506    0.0000 C   0  0  0  0  0  0  0  0  0  0  0  0
   -7.2317   -6.0469    0.0000 C   0  0  0  0  0  0  0  0  0  0  0  0
   -8.6583   -6.5105    0.0000 N   0  0  0  0  0  0  0  0  0  0  0  0
   -8.9702   -7.9777    0.0000 C   0  0  0  0  0  0  0  0  0  0  0  0
   -7.8555   -8.9814    0.0000 C   0  0  0  0  0  0  0  0  0  0  0  0
   -6.4289   -8.5179    0.0000 C   0  0  0  0  0  0  0  0  0  0  0  0
   -8.1673  -10.4486    0.0000 C   0  0  0  0  0  0  0  0  0  0  0  0
   -9.5939  -10.9121    0.0000 C   0  0  0  0  0  0  0  0  0  0  0  0
   -9.9058  -12.3794    0.0000 C   0  0  0  0  0  0  0  0  0  0  0  0
   -8.7911  -13.3831    0.0000 C   0  0  0  0  0  0  0  0  0  0  0  0
   -9.1029  -14.8503    0.0000 N   0  0  0  0  0  0  0  0  0  0  0  0
   -7.3645  -12.9195    0.0000 C   0  0  0  0  0  0  0  0  0  0  0  0
   -7.0526  -11.4523    0.0000 C   0  0  0  0  0  0  0  0  0  0  0  0
   -6.2498  -13.9232    0.0000 C   0  0  0  0  0  0  0  0  0  0  0  0
   -6.5616  -15.3904    0.0000 O   0  0  0  0  0  0  0  0  0  0  0  0
   -4.8232  -13.4597    0.0000 C   0  0  0  0  0  0  0  0  0  0  0  0
   -3.7085  -14.4634    0.0000 C   0  0  0  0  0  0  0  0  0  0  0  0
   -2.2819  -13.9999    0.0000 C   0  0  0  0  0  0  0  0  0  0  0  0
   -1.9700  -12.5326    0.0000 C   0  0  0  0  0  0  0  0  0  0  0  0
   -3.0847  -11.5290    0.0000 C   0  0  0  0  0  0  0  0  0  0  0  0
   -2.7729  -10.0617    0.0000 Cl  0  0  0  0  0  0  0  0  0  0  0  0
   -4.5113  -11.9925    0.0000 C   0  0  0  0  0  0  0  0  0  0  0  0
   -2.6401   -3.1891    0.0000 C   0  0  0  0  0  0  0  0  0  0  0  0
   -1.2135   -2.7256    0.0000 C   0  0  0  0  0  0  0  0  0  0  0  0
    0.0000   -3.6073    0.0000 C   0  0  0  0  0  0  0  0  0  0  0  0
    1.2135   -2.7256    0.0000 N   0  0  0  0  0  0  0  0  0  0  0  0
    0.7500   -1.2990    0.0000 C   0  0  0  0  0  0  0  0  0  0  0  0
    1.5000    0.0000    0.0000 C   0  0  0  0  0  0  0  0  0  0  0  0
    0.7500    1.2990    0.0000 C   0  0  0  0  0  0  0  0  0  0  0  0
   -0.7500    1.2990    0.0000 C   0  0  0  0  0  0  0  0  0  0  0  0
   -1.5000    0.0000    0.0000 C   0  0  0  0  0  0  0  0  0  0  0  0
   -0.7500   -1.2990    0.0000 C   0  0  0  0  0  0  0  0  0  0  0  0
  1  2  1  0
  2  3  1  0
  3  4  1  0
  4  5  1  0
  5  6  2  0
  6  7  1  0
  7  8  2  0
  8  9  1  0
  9 10  2  0
  9 11  1  0
 11 12  2  0
 12 13  1  0
 13 14  2  0
 14 15  1  0
 14 16  1  0
 16 17  2  0
 16 18  1  0
 18 19  2  0
 18 20  1  0
 20 21  2  0
 21 22  1  0
 22 23  2  0
 23 24  1  0
 24 25  1  0
 24 26  2  0
  2 27  1  0
 27 28  1  0
 28 29  2  0
 29 30  1  0
 30 31  1  0
 31 32  2  0
 32 33  1  0
 33 34  2  0
 34 35  1  0
 35 36  2  0
 10  5  1  0
 17 11  1  0
 26 20  1  0
 36 28  1  0
 36 31  1  0
M  END
>  <Molecule>  (689) 
CHEMBL1973348

>  <Standard Type>  (689) 
Ki

>  <Standard Relation>  (689) 
>

>  <Standard Value>  (689) 
1584.89

>  <Standard Units>  (689) 
nM

>  <pChEMBL Value>  (689) 
nan

>  <Comment>  (689) 
inactive

>  <Compound Key>  (689) 
SID103904501

>  <Assay>  (689) 
CHEMBL1963742

>  <Assay Description>  (689) 
PUBCHEM_BIOASSAY: Navigating the Kinome. (Class of assay: other) Panel member name: JAK3

>  <BAO Format>  (689) 
assay format

>  <Target>  (689) 
CHEMBL2148

>  <Target Pref. Name>  (689) 
Tyrosine-protein kinase JAK3

>  <Target Organism>  (689) 
Homo sapiens

>  <Target Type>  (689) 
SINGLE PROTEIN

>  <Document>  (689) 
CHEMBL1201862

>  <Source>  (689) 
PubChem BioAssays

>  <Max Phase>  (689) 
0

>  <#Ro5 Violations>  (689) 
1

>  <Molecular Weight>  (689) 
497.0

>  <Ligand Efficiency BEI>  (689) 
nan

>  <Ligand Efficiency LE>  (689) 
nan

>  <Ligand Efficiency LLE>  (689) 
nan

>  <Ligand Efficiency SEI>  (689) 
nan

>  <ALogP>  (689) 
5.65

>  <Assay Organism>  (689) 
nan

>  <Assay Tissue ChEMBL ID>  (689) 
nan

>  <Assay Tissue Name>  (689) 
nan

>  <Assay Cell Type>  (689) 
nan

>  <Assay Subcellular Fraction>  (689) 
nan

>  <Organism Tax ID>  (689) 
9606

>  <BAO Format ID>  (689) 
BAO_0000019

>  <Published Type>  (689) 
nan

>  <Published Relation>  (689) 
nan

>  <Published Value>  (689) 
nan

>  <Published Units>  (689) 
nan

>  <Canonical Smiles>  (689) 
NC(COc1cncc(c1)c2ccc(N)c(c2)C(=O)c3cccc(Cl)c3)Cc4c[nH]c5ccccc45

>  <Data Validity Comment>  (689) 
nan

>  <Document Journal>  (689) 
nan

>  <Document Year>  (689) 
nan

>  <SRC ID>  (689) 
7

>  <UO Units>  (689) 
UO_0000065

>  <Potential Duplicate>  (689) 
False

>  <Class>  (689) 
0

$$$$

     RDKit          2D

 23 25  0  0  0  0  0  0  0  0999 V2000
   -1.5000   -2.5981    0.0000 C   0  0  0  0  0  0  0  0  0  0  0  0
   -0.7500   -1.2990    0.0000 C   0  0  0  0  0  0  0  0  0  0  0  0
    0.7500   -1.2990    0.0000 C   0  0  0  0  0  0  0  0  0  0  0  0
    1.5000    0.0000    0.0000 C   0  0  0  0  0  0  0  0  0  0  0  0
    0.7500    1.2990    0.0000 C   0  0  0  0  0  0  0  0  0  0  0  0
   -0.7500    1.2990    0.0000 C   0  0  0  0  0  0  0  0  0  0  0  0
   -1.5000    0.0000    0.0000 C   0  0  0  0  0  0  0  0  0  0  0  0
   -3.0000   -0.0000    0.0000 C   0  0  0  0  0  0  0  0  0  0  0  0
   -1.5000    2.5981    0.0000 C   0  0  0  0  0  0  0  0  0  0  0  0
   -2.9918    2.7549    0.0000 N   0  0  0  0  0  0  0  0  0  0  0  0
   -3.3037    4.2221    0.0000 C   0  0  0  0  0  0  0  0  0  0  0  0
   -2.0046    4.9721    0.0000 C   0  0  0  0  0  0  0  0  0  0  0  0
   -0.8899    3.9684    0.0000 C   0  0  0  0  0  0  0  0  0  0  0  0
    0.5773    4.2803    0.0000 C   0  0  0  0  0  0  0  0  0  0  0  0
    1.5810    3.1655    0.0000 O   0  0  0  0  0  0  0  0  0  0  0  0
    1.0409    5.7068    0.0000 N   0  0  0  0  0  0  0  0  0  0  0  0
   -4.6740    4.8322    0.0000 C   0  0  0  0  0  0  0  0  0  0  0  0
   -4.8308    6.3240    0.0000 C   0  0  0  0  0  0  0  0  0  0  0  0
   -6.2011    6.9341    0.0000 C   0  0  0  0  0  0  0  0  0  0  0  0
   -7.4146    6.0524    0.0000 N   0  0  0  0  0  0  0  0  0  0  0  0
   -7.2578    4.5606    0.0000 C   0  0  0  0  0  0  0  0  0  0  0  0
   -8.4713    3.6789    0.0000 N   0  0  0  0  0  0  0  0  0  0  0  0
   -5.8875    3.9505    0.0000 N   0  0  0  0  0  0  0  0  0  0  0  0
  1  2  1  0
  2  3  2  0
  3  4  1  0
  4  5  2  0
  5  6  1  0
  6  7  2  0
  7  8  1  0
  6  9  1  0
  9 10  1  0
 10 11  1  0
 11 12  2  0
 12 13  1  0
 13 14  1  0
 14 15  2  0
 14 16  1  0
 11 17  1  0
 17 18  2  0
 18 19  1  0
 19 20  2  0
 20 21  1  0
 21 22  1  0
 21 23  2  0
  7  2  1  0
 13  9  2  0
 23 17  1  0
M  END
>  <Molecule>  (690) 
CHEMBL1964290

>  <Standard Type>  (690) 
Ki

>  <Standard Relation>  (690) 
=

>  <Standard Value>  (690) 
501.19

>  <Standard Units>  (690) 
nM

>  <pChEMBL Value>  (690) 
6.3

>  <Comment>  (690) 
active

>  <Compound Key>  (690) 
SID103905598

>  <Assay>  (690) 
CHEMBL1963742

>  <Assay Description>  (690) 
PUBCHEM_BIOASSAY: Navigating the Kinome. (Class of assay: other) Panel member name: JAK3

>  <BAO Format>  (690) 
assay format

>  <Target>  (690) 
CHEMBL2148

>  <Target Pref. Name>  (690) 
Tyrosine-protein kinase JAK3

>  <Target Organism>  (690) 
Homo sapiens

>  <Target Type>  (690) 
SINGLE PROTEIN

>  <Document>  (690) 
CHEMBL1201862

>  <Source>  (690) 
PubChem BioAssays

>  <Max Phase>  (690) 
0

>  <#Ro5 Violations>  (690) 
0

>  <Molecular Weight>  (690) 
307.36

>  <Ligand Efficiency BEI>  (690) 
nan

>  <Ligand Efficiency LE>  (690) 
nan

>  <Ligand Efficiency LLE>  (690) 
nan

>  <Ligand Efficiency SEI>  (690) 
nan

>  <ALogP>  (690) 
2.44

>  <Assay Organism>  (690) 
nan

>  <Assay Tissue ChEMBL ID>  (690) 
nan

>  <Assay Tissue Name>  (690) 
nan

>  <Assay Cell Type>  (690) 
nan

>  <Assay Subcellular Fraction>  (690) 
nan

>  <Organism Tax ID>  (690) 
9606

>  <BAO Format ID>  (690) 
BAO_0000019

>  <Published Type>  (690) 
nan

>  <Published Relation>  (690) 
nan

>  <Published Value>  (690) 
nan

>  <Published Units>  (690) 
nan

>  <Canonical Smiles>  (690) 
Cc1cccc(c1C)c2[nH]c(cc2C(=O)N)c3ccnc(N)n3

>  <Data Validity Comment>  (690) 
nan

>  <Document Journal>  (690) 
nan

>  <Document Year>  (690) 
nan

>  <SRC ID>  (690) 
7

>  <UO Units>  (690) 
UO_0000065

>  <Potential Duplicate>  (690) 
False

>  <Class>  (690) 
1

$$$$

     RDKit          2D

 38 42  0  0  0  0  0  0  0  0999 V2000
   -5.2500   -3.8971    0.0000 C   0  0  0  0  0  0  0  0  0  0  0  0
   -3.7500   -3.8971    0.0000 O   0  0  0  0  0  0  0  0  0  0  0  0
   -3.0000   -2.5981    0.0000 C   0  0  0  0  0  0  0  0  0  0  0  0
   -1.5000   -2.5981    0.0000 C   0  0  0  0  0  0  0  0  0  0  0  0
   -0.7500   -1.2990    0.0000 C   0  0  0  0  0  0  0  0  0  0  0  0
    0.7500   -1.2990    0.0000 C   0  0  0  0  0  0  0  0  0  0  0  0
    1.5000   -2.5981    0.0000 N   0  0  0  0  0  0  0  0  0  0  0  0
    3.0000   -2.5981    0.0000 C   0  0  0  0  0  0  0  0  0  0  0  0
    3.7500   -3.8971    0.0000 C   0  0  0  0  0  0  0  0  0  0  0  0
    5.2500   -3.8971    0.0000 C   0  0  0  0  0  0  0  0  0  0  0  0
    6.0000   -2.5981    0.0000 C   0  0  0  0  0  0  0  0  0  0  0  0
    7.5000   -2.5981    0.0000 N   0  0  0  0  0  0  0  0  0  0  0  0
    8.2500   -3.8971    0.0000 C   0  0  0  0  0  0  0  0  0  0  0  0
    7.5000   -5.1962    0.0000 O   0  0  0  0  0  0  0  0  0  0  0  0
    9.7500   -3.8971    0.0000 C   0  0  0  0  0  0  0  0  0  0  0  0
   10.5000   -5.1962    0.0000 C   0  0  0  0  0  0  0  0  0  0  0  0
   12.0000   -5.1962    0.0000 C   0  0  0  0  0  0  0  0  0  0  0  0
   12.7500   -3.8971    0.0000 C   0  0  0  0  0  0  0  0  0  0  0  0
   12.0000   -2.5981    0.0000 C   0  0  0  0  0  0  0  0  0  0  0  0
   10.5000   -2.5981    0.0000 C   0  0  0  0  0  0  0  0  0  0  0  0
    5.2500   -1.2990    0.0000 C   0  0  0  0  0  0  0  0  0  0  0  0
    3.7500   -1.2990    0.0000 C   0  0  0  0  0  0  0  0  0  0  0  0
    1.5000    0.0000    0.0000 N   0  0  0  0  0  0  0  0  0  0  0  0
    0.7500    1.2990    0.0000 C   0  0  0  0  0  0  0  0  0  0  0  0
   -0.7500    1.2990    0.0000 N   0  0  0  0  0  0  0  0  0  0  0  0
   -1.5000    0.0000    0.0000 C   0  0  0  0  0  0  0  0  0  0  0  0
   -3.0000    0.0000    0.0000 C   0  0  0  0  0  0  0  0  0  0  0  0
   -3.7500   -1.2990    0.0000 C   0  0  0  0  0  0  0  0  0  0  0  0
   -5.2500   -1.2990    0.0000 O   0  0  0  0  0  0  0  0  0  0  0  0
   -6.0000    0.0000    0.0000 C   0  0  0  0  0  0  0  0  0  0  0  0
   -7.5000    0.0000    0.0000 C   0  0  0  0  0  0  0  0  0  0  0  0
   -8.2500    1.2990    0.0000 C   0  0  0  0  0  0  0  0  0  0  0  0
   -9.7500    1.2990    0.0000 N   0  0  0  0  0  0  0  0  0  0  0  0
  -10.5000    2.5981    0.0000 C   0  0  0  0  0  0  0  0  0  0  0  0
  -12.0000    2.5981    0.0000 C   0  0  0  0  0  0  0  0  0  0  0  0
  -12.7500    1.2990    0.0000 O   0  0  0  0  0  0  0  0  0  0  0  0
  -12.0000    0.0000    0.0000 C   0  0  0  0  0  0  0  0  0  0  0  0
  -10.5000    0.0000    0.0000 C   0  0  0  0  0  0  0  0  0  0  0  0
  1  2  1  0
  2  3  1  0
  3  4  2  0
  4  5  1  0
  5  6  2  0
  6  7  1  0
  7  8  1  0
  8  9  2  0
  9 10  1  0
 10 11  2  0
 11 12  1  0
 12 13  1  0
 13 14  2  0
 13 15  1  0
 15 16  2  0
 16 17  1  0
 17 18  2  0
 18 19  1  0
 19 20  2  0
 11 21  1  0
 21 22  2  0
  6 23  1  0
 23 24  2  0
 24 25  1  0
 25 26  2  0
 26 27  1  0
 27 28  2  0
 28 29  1  0
 29 30  1  0
 30 31  1  0
 31 32  1  0
 32 33  1  0
 33 34  1  0
 34 35  1  0
 35 36  1  0
 36 37  1  0
 37 38  1  0
 28  3  1  0
 26  5  1  0
 22  8  1  0
 20 15  1  0
 38 33  1  0
M  END
>  <Molecule>  (691) 
CHEMBL202721

>  <Standard Type>  (691) 
Ki

>  <Standard Relation>  (691) 
>

>  <Standard Value>  (691) 
5011.87

>  <Standard Units>  (691) 
nM

>  <pChEMBL Value>  (691) 
nan

>  <Comment>  (691) 
inactive

>  <Compound Key>  (691) 
SID103905341

>  <Assay>  (691) 
CHEMBL1963742

>  <Assay Description>  (691) 
PUBCHEM_BIOASSAY: Navigating the Kinome. (Class of assay: other) Panel member name: JAK3

>  <BAO Format>  (691) 
assay format

>  <Target>  (691) 
CHEMBL2148

>  <Target Pref. Name>  (691) 
Tyrosine-protein kinase JAK3

>  <Target Organism>  (691) 
Homo sapiens

>  <Target Type>  (691) 
SINGLE PROTEIN

>  <Document>  (691) 
CHEMBL1201862

>  <Source>  (691) 
PubChem BioAssays

>  <Max Phase>  (691) 
0

>  <#Ro5 Violations>  (691) 
1

>  <Molecular Weight>  (691) 
513.6

>  <Ligand Efficiency BEI>  (691) 
nan

>  <Ligand Efficiency LE>  (691) 
nan

>  <Ligand Efficiency LLE>  (691) 
nan

>  <Ligand Efficiency SEI>  (691) 
nan

>  <ALogP>  (691) 
4.74

>  <Assay Organism>  (691) 
nan

>  <Assay Tissue ChEMBL ID>  (691) 
nan

>  <Assay Tissue Name>  (691) 
nan

>  <Assay Cell Type>  (691) 
nan

>  <Assay Subcellular Fraction>  (691) 
nan

>  <Organism Tax ID>  (691) 
9606

>  <BAO Format ID>  (691) 
BAO_0000019

>  <Published Type>  (691) 
nan

>  <Published Relation>  (691) 
nan

>  <Published Value>  (691) 
nan

>  <Published Units>  (691) 
nan

>  <Canonical Smiles>  (691) 
COc1cc2c(Nc3ccc(NC(=O)c4ccccc4)cc3)ncnc2cc1OCCCN5CCOCC5

>  <Data Validity Comment>  (691) 
nan

>  <Document Journal>  (691) 
nan

>  <Document Year>  (691) 
nan

>  <SRC ID>  (691) 
7

>  <UO Units>  (691) 
UO_0000065

>  <Potential Duplicate>  (691) 
False

>  <Class>  (691) 
0

$$$$

     RDKit          2D

 26 29  0  0  0  0  0  0  0  0999 V2000
    6.0000   -7.7942    0.0000 C   0  0  0  0  0  0  0  0  0  0  0  0
    5.2500   -6.4952    0.0000 O   0  0  0  0  0  0  0  0  0  0  0  0
    3.7500   -6.4952    0.0000 C   0  0  0  0  0  0  0  0  0  0  0  0
    3.0000   -7.7942    0.0000 C   0  0  0  0  0  0  0  0  0  0  0  0
    1.5000   -7.7942    0.0000 C   0  0  0  0  0  0  0  0  0  0  0  0
    0.7500   -6.4952    0.0000 C   0  0  0  0  0  0  0  0  0  0  0  0
    1.5000   -5.1962    0.0000 C   0  0  0  0  0  0  0  0  0  0  0  0
    3.0000   -5.1962    0.0000 C   0  0  0  0  0  0  0  0  0  0  0  0
    0.7500   -3.8971    0.0000 C   0  0  0  0  0  0  0  0  0  0  0  0
   -0.7500   -3.8971    0.0000 O   0  0  0  0  0  0  0  0  0  0  0  0
    1.5000   -2.5981    0.0000 N   0  0  0  0  0  0  0  0  0  0  0  0
    0.7500   -1.2990    0.0000 C   0  0  0  0  0  0  0  0  0  0  0  0
    1.5000    0.0000    0.0000 C   0  0  0  0  0  0  0  0  0  0  0  0
    0.7500    1.2990    0.0000 N   0  0  0  0  0  0  0  0  0  0  0  0
   -0.7500    1.2990    0.0000 C   0  0  0  0  0  0  0  0  0  0  0  0
   -1.7537    2.4138    0.0000 N   0  0  0  0  0  0  0  0  0  0  0  0
   -3.1240    1.8037    0.0000 C   0  0  0  0  0  0  0  0  0  0  0  0
   -2.9672    0.3119    0.0000 C   0  0  0  0  0  0  0  0  0  0  0  0
   -4.0819   -0.6918    0.0000 C   0  0  0  0  0  0  0  0  0  0  0  0
   -5.5085   -0.2283    0.0000 C   0  0  0  0  0  0  0  0  0  0  0  0
   -6.6232   -1.2320    0.0000 C   0  0  0  0  0  0  0  0  0  0  0  0
   -6.3114   -2.6992    0.0000 C   0  0  0  0  0  0  0  0  0  0  0  0
   -4.8848   -3.1627    0.0000 C   0  0  0  0  0  0  0  0  0  0  0  0
   -3.7701   -2.1590    0.0000 C   0  0  0  0  0  0  0  0  0  0  0  0
   -1.5000    0.0000    0.0000 C   0  0  0  0  0  0  0  0  0  0  0  0
   -0.7500   -1.2990    0.0000 C   0  0  0  0  0  0  0  0  0  0  0  0
  1  2  1  0
  2  3  1  0
  3  4  2  0
  4  5  1  0
  5  6  2  0
  6  7  1  0
  7  8  2  0
  7  9  1  0
  9 10  2  0
  9 11  1  0
 11 12  1  0
 12 13  2  0
 13 14  1  0
 14 15  2  0
 15 16  1  0
 16 17  1  0
 17 18  2  0
 18 19  1  0
 19 20  2  0
 20 21  1  0
 21 22  2  0
 22 23  1  0
 23 24  2  0
 18 25  1  0
 25 26  2  0
  8  3  1  0
 26 12  1  0
 25 15  1  0
 24 19  1  0
M  END
>  <Molecule>  (692) 
CHEMBL1982924

>  <Standard Type>  (692) 
Ki

>  <Standard Relation>  (692) 
>

>  <Standard Value>  (692) 
1584.89

>  <Standard Units>  (692) 
nM

>  <pChEMBL Value>  (692) 
nan

>  <Comment>  (692) 
inactive

>  <Compound Key>  (692) 
SID103904210

>  <Assay>  (692) 
CHEMBL1963742

>  <Assay Description>  (692) 
PUBCHEM_BIOASSAY: Navigating the Kinome. (Class of assay: other) Panel member name: JAK3

>  <BAO Format>  (692) 
assay format

>  <Target>  (692) 
CHEMBL2148

>  <Target Pref. Name>  (692) 
Tyrosine-protein kinase JAK3

>  <Target Organism>  (692) 
Homo sapiens

>  <Target Type>  (692) 
SINGLE PROTEIN

>  <Document>  (692) 
CHEMBL1201862

>  <Source>  (692) 
PubChem BioAssays

>  <Max Phase>  (692) 
0

>  <#Ro5 Violations>  (692) 
0

>  <Molecular Weight>  (692) 
343.39

>  <Ligand Efficiency BEI>  (692) 
nan

>  <Ligand Efficiency LE>  (692) 
nan

>  <Ligand Efficiency LLE>  (692) 
nan

>  <Ligand Efficiency SEI>  (692) 
nan

>  <ALogP>  (692) 
4.49

>  <Assay Organism>  (692) 
nan

>  <Assay Tissue ChEMBL ID>  (692) 
nan

>  <Assay Tissue Name>  (692) 
nan

>  <Assay Cell Type>  (692) 
nan

>  <Assay Subcellular Fraction>  (692) 
nan

>  <Organism Tax ID>  (692) 
9606

>  <BAO Format ID>  (692) 
BAO_0000019

>  <Published Type>  (692) 
nan

>  <Published Relation>  (692) 
nan

>  <Published Value>  (692) 
nan

>  <Published Units>  (692) 
nan

>  <Canonical Smiles>  (692) 
COc1cccc(c1)C(=O)Nc2cnc3[nH]cc(c4ccccc4)c3c2

>  <Data Validity Comment>  (692) 
nan

>  <Document Journal>  (692) 
nan

>  <Document Year>  (692) 
nan

>  <SRC ID>  (692) 
7

>  <UO Units>  (692) 
UO_0000065

>  <Potential Duplicate>  (692) 
False

>  <Class>  (692) 
0

$$$$

     RDKit          2D

 26 28  0  0  0  0  0  0  0  0999 V2000
    3.0000    0.0000    0.0000 C   0  0  0  0  0  0  0  0  0  0  0  0
    1.5000    0.0000    0.0000 C   0  0  0  0  0  0  0  0  0  0  0  0
    0.7500   -1.2990    0.0000 C   0  0  0  0  0  0  0  0  0  0  0  0
   -0.7500   -1.2990    0.0000 C   0  0  0  0  0  0  0  0  0  0  0  0
   -1.5000    0.0000    0.0000 C   0  0  0  0  0  0  0  0  0  0  0  0
   -0.7500    1.2990    0.0000 C   0  0  0  0  0  0  0  0  0  0  0  0
   -1.5000    2.5981    0.0000 N   0  0  0  0  0  0  0  0  0  0  0  0
   -0.7500    3.8971    0.0000 C   0  0  0  0  0  0  0  0  0  0  0  0
    0.7500    3.8971    0.0000 O   0  0  0  0  0  0  0  0  0  0  0  0
   -1.5000    5.1962    0.0000 N   0  0  0  0  0  0  0  0  0  0  0  0
   -0.7500    6.4952    0.0000 C   0  0  0  0  0  0  0  0  0  0  0  0
    0.7500    6.4952    0.0000 C   0  0  0  0  0  0  0  0  0  0  0  0
    1.5000    7.7942    0.0000 C   0  0  0  0  0  0  0  0  0  0  0  0
    0.7500    9.0933    0.0000 C   0  0  0  0  0  0  0  0  0  0  0  0
   -0.7500    9.0933    0.0000 C   0  0  0  0  0  0  0  0  0  0  0  0
   -1.5000    7.7942    0.0000 C   0  0  0  0  0  0  0  0  0  0  0  0
    1.5000   10.3923    0.0000 C   0  0  0  0  0  0  0  0  0  0  0  0
    3.0000   10.3923    0.0000 C   0  0  0  0  0  0  0  0  0  0  0  0
    3.7500   11.6913    0.0000 C   0  0  0  0  0  0  0  0  0  0  0  0
    3.0000   12.9904    0.0000 C   0  0  0  0  0  0  0  0  0  0  0  0
    1.5000   12.9904    0.0000 C   0  0  0  0  0  0  0  0  0  0  0  0
    0.7500   11.6913    0.0000 C   0  0  0  0  0  0  0  0  0  0  0  0
    0.7500   14.2894    0.0000 C   0  0  0  0  0  0  0  0  0  0  0  0
   -0.7500   14.2894    0.0000 O   0  0  0  0  0  0  0  0  0  0  0  0
    1.5000   15.5885    0.0000 N   0  0  0  0  0  0  0  0  0  0  0  0
    0.7500    1.2990    0.0000 C   0  0  0  0  0  0  0  0  0  0  0  0
  1  2  1  0
  2  3  2  0
  3  4  1  0
  4  5  2  0
  5  6  1  0
  6  7  1  0
  7  8  1  0
  8  9  2  0
  8 10  1  0
 10 11  1  0
 11 12  2  0
 12 13  1  0
 13 14  2  0
 14 15  1  0
 15 16  2  0
 14 17  1  0
 17 18  2  0
 18 19  1  0
 19 20  2  0
 20 21  1  0
 21 22  2  0
 21 23  1  0
 23 24  2  0
 23 25  1  0
  6 26  2  0
 26  2  1  0
 16 11  1  0
 22 17  1  0
M  END
>  <Molecule>  (693) 
CHEMBL1971141

>  <Standard Type>  (693) 
Ki

>  <Standard Relation>  (693) 
>

>  <Standard Value>  (693) 
1584.89

>  <Standard Units>  (693) 
nM

>  <pChEMBL Value>  (693) 
nan

>  <Comment>  (693) 
inactive

>  <Compound Key>  (693) 
SID103904383

>  <Assay>  (693) 
CHEMBL1963742

>  <Assay Description>  (693) 
PUBCHEM_BIOASSAY: Navigating the Kinome. (Class of assay: other) Panel member name: JAK3

>  <BAO Format>  (693) 
assay format

>  <Target>  (693) 
CHEMBL2148

>  <Target Pref. Name>  (693) 
Tyrosine-protein kinase JAK3

>  <Target Organism>  (693) 
Homo sapiens

>  <Target Type>  (693) 
SINGLE PROTEIN

>  <Document>  (693) 
CHEMBL1201862

>  <Source>  (693) 
PubChem BioAssays

>  <Max Phase>  (693) 
0

>  <#Ro5 Violations>  (693) 
0

>  <Molecular Weight>  (693) 
345.4

>  <Ligand Efficiency BEI>  (693) 
nan

>  <Ligand Efficiency LE>  (693) 
nan

>  <Ligand Efficiency LLE>  (693) 
nan

>  <Ligand Efficiency SEI>  (693) 
nan

>  <ALogP>  (693) 
4.4

>  <Assay Organism>  (693) 
nan

>  <Assay Tissue ChEMBL ID>  (693) 
nan

>  <Assay Tissue Name>  (693) 
nan

>  <Assay Cell Type>  (693) 
nan

>  <Assay Subcellular Fraction>  (693) 
nan

>  <Organism Tax ID>  (693) 
9606

>  <BAO Format ID>  (693) 
BAO_0000019

>  <Published Type>  (693) 
nan

>  <Published Relation>  (693) 
nan

>  <Published Value>  (693) 
nan

>  <Published Units>  (693) 
nan

>  <Canonical Smiles>  (693) 
Cc1cccc(NC(=O)Nc2ccc(cc2)c3cccc(c3)C(=O)N)c1

>  <Data Validity Comment>  (693) 
nan

>  <Document Journal>  (693) 
nan

>  <Document Year>  (693) 
nan

>  <SRC ID>  (693) 
7

>  <UO Units>  (693) 
UO_0000065

>  <Potential Duplicate>  (693) 
False

>  <Class>  (693) 
0

$$$$

     RDKit          2D

 23 26  0  0  0  0  0  0  0  0999 V2000
   -8.5256    0.3621    0.0000 N   0  0  0  0  0  0  0  0  0  0  0  0
   -7.0990    0.8256    0.0000 C   0  0  0  0  0  0  0  0  0  0  0  0
   -6.7871    2.2929    0.0000 C   0  0  0  0  0  0  0  0  0  0  0  0
   -5.3605    2.7564    0.0000 C   0  0  0  0  0  0  0  0  0  0  0  0
   -4.2458    1.7527    0.0000 C   0  0  0  0  0  0  0  0  0  0  0  0
   -4.5577    0.2855    0.0000 C   0  0  0  0  0  0  0  0  0  0  0  0
   -5.9843   -0.1781    0.0000 C   0  0  0  0  0  0  0  0  0  0  0  0
   -6.2961   -1.6453    0.0000 N   0  0  0  0  0  0  0  0  0  0  0  0
   -5.1814   -2.6490    0.0000 C   0  0  0  0  0  0  0  0  0  0  0  0
   -5.4933   -4.1162    0.0000 N   0  0  0  0  0  0  0  0  0  0  0  0
   -4.3786   -5.1199    0.0000 C   0  0  0  0  0  0  0  0  0  0  0  0
   -2.9520   -4.6564    0.0000 C   0  0  0  0  0  0  0  0  0  0  0  0
   -2.6401   -3.1891    0.0000 C   0  0  0  0  0  0  0  0  0  0  0  0
   -3.7548   -2.1855    0.0000 N   0  0  0  0  0  0  0  0  0  0  0  0
   -1.2135   -2.7256    0.0000 C   0  0  0  0  0  0  0  0  0  0  0  0
    0.0000   -3.6073    0.0000 C   0  0  0  0  0  0  0  0  0  0  0  0
    1.2135   -2.7256    0.0000 N   0  0  0  0  0  0  0  0  0  0  0  0
    0.7500   -1.2990    0.0000 C   0  0  0  0  0  0  0  0  0  0  0  0
    1.5000    0.0000    0.0000 N   0  0  0  0  0  0  0  0  0  0  0  0
    0.7500    1.2990    0.0000 C   0  0  0  0  0  0  0  0  0  0  0  0
   -0.7500    1.2990    0.0000 C   0  0  0  0  0  0  0  0  0  0  0  0
   -1.5000    0.0000    0.0000 C   0  0  0  0  0  0  0  0  0  0  0  0
   -0.7500   -1.2990    0.0000 C   0  0  0  0  0  0  0  0  0  0  0  0
  1  2  1  0
  2  3  1  0
  3  4  1  0
  4  5  1  0
  5  6  1  0
  6  7  1  0
  7  8  1  0
  8  9  1  0
  9 10  2  0
 10 11  1  0
 11 12  2  0
 12 13  1  0
 13 14  2  0
 13 15  1  0
 15 16  2  0
 16 17  1  0
 17 18  1  0
 18 19  2  0
 19 20  1  0
 20 21  2  0
 21 22  1  0
 22 23  2  0
  7  2  1  0
 14  9  1  0
 23 15  1  0
 23 18  1  0
M  END
>  <Molecule>  (694) 
CHEMBL1995813

>  <Standard Type>  (694) 
Ki

>  <Standard Relation>  (694) 
=

>  <Standard Value>  (694) 
1258.93

>  <Standard Units>  (694) 
nM

>  <pChEMBL Value>  (694) 
5.9

>  <Comment>  (694) 
active

>  <Compound Key>  (694) 
SID103904202

>  <Assay>  (694) 
CHEMBL1963742

>  <Assay Description>  (694) 
PUBCHEM_BIOASSAY: Navigating the Kinome. (Class of assay: other) Panel member name: JAK3

>  <BAO Format>  (694) 
assay format

>  <Target>  (694) 
CHEMBL2148

>  <Target Pref. Name>  (694) 
Tyrosine-protein kinase JAK3

>  <Target Organism>  (694) 
Homo sapiens

>  <Target Type>  (694) 
SINGLE PROTEIN

>  <Document>  (694) 
CHEMBL1201862

>  <Source>  (694) 
PubChem BioAssays

>  <Max Phase>  (694) 
0

>  <#Ro5 Violations>  (694) 
0

>  <Molecular Weight>  (694) 
308.39

>  <Ligand Efficiency BEI>  (694) 
nan

>  <Ligand Efficiency LE>  (694) 
nan

>  <Ligand Efficiency LLE>  (694) 
nan

>  <Ligand Efficiency SEI>  (694) 
nan

>  <ALogP>  (694) 
2.7

>  <Assay Organism>  (694) 
nan

>  <Assay Tissue ChEMBL ID>  (694) 
nan

>  <Assay Tissue Name>  (694) 
nan

>  <Assay Cell Type>  (694) 
nan

>  <Assay Subcellular Fraction>  (694) 
nan

>  <Organism Tax ID>  (694) 
9606

>  <BAO Format ID>  (694) 
BAO_0000019

>  <Published Type>  (694) 
nan

>  <Published Relation>  (694) 
nan

>  <Published Value>  (694) 
nan

>  <Published Units>  (694) 
nan

>  <Canonical Smiles>  (694) 
NC1CCCCC1Nc2nccc(n2)c3c[nH]c4ncccc34

>  <Data Validity Comment>  (694) 
nan

>  <Document Journal>  (694) 
nan

>  <Document Year>  (694) 
nan

>  <SRC ID>  (694) 
7

>  <UO Units>  (694) 
UO_0000065

>  <Potential Duplicate>  (694) 
False

>  <Class>  (694) 
1

$$$$

     RDKit          2D

 21 23  0  0  0  0  0  0  0  0999 V2000
    3.0000    0.0000    0.0000 F   0  0  0  0  0  0  0  0  0  0  0  0
    1.5000    0.0000    0.0000 C   0  0  0  0  0  0  0  0  0  0  0  0
    0.7500   -1.2990    0.0000 C   0  0  0  0  0  0  0  0  0  0  0  0
   -0.7500   -1.2990    0.0000 N   0  0  0  0  0  0  0  0  0  0  0  0
   -1.5000    0.0000    0.0000 C   0  0  0  0  0  0  0  0  0  0  0  0
   -3.0000    0.0000    0.0000 N   0  0  0  0  0  0  0  0  0  0  0  0
   -3.7500    1.2990    0.0000 C   0  0  0  0  0  0  0  0  0  0  0  0
   -3.0000    2.5981    0.0000 C   0  0  0  0  0  0  0  0  0  0  0  0
   -3.7500    3.8971    0.0000 C   0  0  0  0  0  0  0  0  0  0  0  0
   -5.2500    3.8971    0.0000 C   0  0  0  0  0  0  0  0  0  0  0  0
   -6.0000    2.5981    0.0000 C   0  0  0  0  0  0  0  0  0  0  0  0
   -5.2500    1.2990    0.0000 C   0  0  0  0  0  0  0  0  0  0  0  0
   -0.7500    1.2990    0.0000 N   0  0  0  0  0  0  0  0  0  0  0  0
    0.7500    1.2990    0.0000 C   0  0  0  0  0  0  0  0  0  0  0  0
    1.5000    2.5981    0.0000 N   0  0  0  0  0  0  0  0  0  0  0  0
    3.0000    2.5981    0.0000 C   0  0  0  0  0  0  0  0  0  0  0  0
    3.7500    1.2990    0.0000 C   0  0  0  0  0  0  0  0  0  0  0  0
    5.2500    1.2990    0.0000 C   0  0  0  0  0  0  0  0  0  0  0  0
    6.0000    2.5981    0.0000 C   0  0  0  0  0  0  0  0  0  0  0  0
    5.2500    3.8971    0.0000 C   0  0  0  0  0  0  0  0  0  0  0  0
    3.7500    3.8971    0.0000 C   0  0  0  0  0  0  0  0  0  0  0  0
  1  2  1  0
  2  3  2  0
  3  4  1  0
  4  5  2  0
  5  6  1  0
  6  7  1  0
  7  8  2  0
  8  9  1  0
  9 10  2  0
 10 11  1  0
 11 12  2  0
  5 13  1  0
 13 14  2  0
 14 15  1  0
 15 16  1  0
 16 17  2  0
 17 18  1  0
 18 19  2  0
 19 20  1  0
 20 21  2  0
 14  2  1  0
 12  7  1  0
 21 16  1  0
M  END
>  <Molecule>  (695) 
CHEMBL491758

>  <Standard Type>  (695) 
Ki

>  <Standard Relation>  (695) 
=

>  <Standard Value>  (695) 
316.23

>  <Standard Units>  (695) 
nM

>  <pChEMBL Value>  (695) 
6.5

>  <Comment>  (695) 
active

>  <Compound Key>  (695) 
SID103904610

>  <Assay>  (695) 
CHEMBL1963742

>  <Assay Description>  (695) 
PUBCHEM_BIOASSAY: Navigating the Kinome. (Class of assay: other) Panel member name: JAK3

>  <BAO Format>  (695) 
assay format

>  <Target>  (695) 
CHEMBL2148

>  <Target Pref. Name>  (695) 
Tyrosine-protein kinase JAK3

>  <Target Organism>  (695) 
Homo sapiens

>  <Target Type>  (695) 
SINGLE PROTEIN

>  <Document>  (695) 
CHEMBL1201862

>  <Source>  (695) 
PubChem BioAssays

>  <Max Phase>  (695) 
0

>  <#Ro5 Violations>  (695) 
0

>  <Molecular Weight>  (695) 
280.31

>  <Ligand Efficiency BEI>  (695) 
nan

>  <Ligand Efficiency LE>  (695) 
nan

>  <Ligand Efficiency LLE>  (695) 
nan

>  <Ligand Efficiency SEI>  (695) 
nan

>  <ALogP>  (695) 
4.1

>  <Assay Organism>  (695) 
nan

>  <Assay Tissue ChEMBL ID>  (695) 
nan

>  <Assay Tissue Name>  (695) 
nan

>  <Assay Cell Type>  (695) 
nan

>  <Assay Subcellular Fraction>  (695) 
nan

>  <Organism Tax ID>  (695) 
9606

>  <BAO Format ID>  (695) 
BAO_0000019

>  <Published Type>  (695) 
nan

>  <Published Relation>  (695) 
nan

>  <Published Value>  (695) 
nan

>  <Published Units>  (695) 
nan

>  <Canonical Smiles>  (695) 
Fc1cnc(Nc2ccccc2)nc1Nc3ccccc3

>  <Data Validity Comment>  (695) 
nan

>  <Document Journal>  (695) 
nan

>  <Document Year>  (695) 
nan

>  <SRC ID>  (695) 
7

>  <UO Units>  (695) 
UO_0000065

>  <Potential Duplicate>  (695) 
False

>  <Class>  (695) 
1

$$$$

     RDKit          2D

 15 17  0  0  0  0  0  0  0  0999 V2000
    2.6401   -3.1891    0.0000 O   0  0  0  0  0  0  0  0  0  0  0  0
    1.2135   -2.7256    0.0000 C   0  0  0  0  0  0  0  0  0  0  0  0
   -0.0000   -3.6073    0.0000 N   0  0  0  0  0  0  0  0  0  0  0  0
   -1.2135   -2.7256    0.0000 C   0  0  0  0  0  0  0  0  0  0  0  0
   -0.7500   -1.2990    0.0000 C   0  0  0  0  0  0  0  0  0  0  0  0
    0.7500   -1.2990    0.0000 C   0  0  0  0  0  0  0  0  0  0  0  0
    1.5000    0.0000    0.0000 C   0  0  0  0  0  0  0  0  0  0  0  0
    0.7500    1.2990    0.0000 C   0  0  0  0  0  0  0  0  0  0  0  0
   -0.7500    1.2990    0.0000 C   0  0  0  0  0  0  0  0  0  0  0  0
   -1.5000    0.0000    0.0000 C   0  0  0  0  0  0  0  0  0  0  0  0
   -3.0000    0.0000    0.0000 C   0  0  0  0  0  0  0  0  0  0  0  0
   -3.8817   -1.2135    0.0000 C   0  0  0  0  0  0  0  0  0  0  0  0
   -5.3083   -0.7500    0.0000 C   0  0  0  0  0  0  0  0  0  0  0  0
   -5.3083    0.7500    0.0000 C   0  0  0  0  0  0  0  0  0  0  0  0
   -3.8817    1.2135    0.0000 S   0  0  0  0  0  0  0  0  0  0  0  0
  1  2  2  0
  2  3  1  0
  3  4  1  0
  4  5  1  0
  5  6  2  0
  6  7  1  0
  7  8  2  0
  8  9  1  0
  9 10  2  0
 10 11  1  0
 11 12  2  0
 12 13  1  0
 13 14  2  0
 14 15  1  0
  6  2  1  0
 10  5  1  0
 15 11  1  0
M  END
>  <Molecule>  (696) 
CHEMBL1991782

>  <Standard Type>  (696) 
Ki

>  <Standard Relation>  (696) 
>

>  <Standard Value>  (696) 
100000.0

>  <Standard Units>  (696) 
nM

>  <pChEMBL Value>  (696) 
nan

>  <Comment>  (696) 
inactive

>  <Compound Key>  (696) 
SID103904576

>  <Assay>  (696) 
CHEMBL1963742

>  <Assay Description>  (696) 
PUBCHEM_BIOASSAY: Navigating the Kinome. (Class of assay: other) Panel member name: JAK3

>  <BAO Format>  (696) 
assay format

>  <Target>  (696) 
CHEMBL2148

>  <Target Pref. Name>  (696) 
Tyrosine-protein kinase JAK3

>  <Target Organism>  (696) 
Homo sapiens

>  <Target Type>  (696) 
SINGLE PROTEIN

>  <Document>  (696) 
CHEMBL1201862

>  <Source>  (696) 
PubChem BioAssays

>  <Max Phase>  (696) 
0

>  <#Ro5 Violations>  (696) 
0

>  <Molecular Weight>  (696) 
215.28

>  <Ligand Efficiency BEI>  (696) 
nan

>  <Ligand Efficiency LE>  (696) 
nan

>  <Ligand Efficiency LLE>  (696) 
nan

>  <Ligand Efficiency SEI>  (696) 
nan

>  <ALogP>  (696) 
2.66

>  <Assay Organism>  (696) 
nan

>  <Assay Tissue ChEMBL ID>  (696) 
nan

>  <Assay Tissue Name>  (696) 
nan

>  <Assay Cell Type>  (696) 
nan

>  <Assay Subcellular Fraction>  (696) 
nan

>  <Organism Tax ID>  (696) 
9606

>  <BAO Format ID>  (696) 
BAO_0000019

>  <Published Type>  (696) 
nan

>  <Published Relation>  (696) 
nan

>  <Published Value>  (696) 
nan

>  <Published Units>  (696) 
nan

>  <Canonical Smiles>  (696) 
O=C1NCc2c1cccc2c3cccs3

>  <Data Validity Comment>  (696) 
nan

>  <Document Journal>  (696) 
nan

>  <Document Year>  (696) 
nan

>  <SRC ID>  (696) 
7

>  <UO Units>  (696) 
UO_0000065

>  <Potential Duplicate>  (696) 
False

>  <Class>  (696) 
0

$$$$

     RDKit          2D

 29 32  0  0  0  0  0  0  0  0999 V2000
    8.2500   -3.8971    0.0000 C   0  0  0  0  0  0  0  0  0  0  0  0
    7.5000   -2.5981    0.0000 C   0  0  0  0  0  0  0  0  0  0  0  0
    6.0000   -2.5981    0.0000 C   0  0  0  0  0  0  0  0  0  0  0  0
    5.2500   -1.2990    0.0000 C   0  0  0  0  0  0  0  0  0  0  0  0
    3.7500   -1.2990    0.0000 N   0  0  0  0  0  0  0  0  0  0  0  0
    3.0000   -2.5981    0.0000 C   0  0  0  0  0  0  0  0  0  0  0  0
    3.7500   -3.8971    0.0000 C   0  0  0  0  0  0  0  0  0  0  0  0
    3.0000   -5.1962    0.0000 C   0  0  0  0  0  0  0  0  0  0  0  0
    2.2500   -6.4952    0.0000 N   0  0  0  0  0  0  0  0  0  0  0  0
    3.0000    0.0000    0.0000 C   0  0  0  0  0  0  0  0  0  0  0  0
    3.7500    1.2990    0.0000 O   0  0  0  0  0  0  0  0  0  0  0  0
    1.5000    0.0000    0.0000 C   0  0  0  0  0  0  0  0  0  0  0  0
    0.7500   -1.2990    0.0000 C   0  0  0  0  0  0  0  0  0  0  0  0
   -0.7500   -1.2990    0.0000 C   0  0  0  0  0  0  0  0  0  0  0  0
   -1.5000    0.0000    0.0000 C   0  0  0  0  0  0  0  0  0  0  0  0
   -2.9672    0.3119    0.0000 N   0  0  0  0  0  0  0  0  0  0  0  0
   -3.1240    1.8037    0.0000 C   0  0  0  0  0  0  0  0  0  0  0  0
   -1.7537    2.4138    0.0000 N   0  0  0  0  0  0  0  0  0  0  0  0
   -0.7500    1.2990    0.0000 C   0  0  0  0  0  0  0  0  0  0  0  0
    0.7500    1.2990    0.0000 C   0  0  0  0  0  0  0  0  0  0  0  0
   -4.4231    2.5537    0.0000 C   0  0  0  0  0  0  0  0  0  0  0  0
   -4.5798    4.0454    0.0000 N   0  0  0  0  0  0  0  0  0  0  0  0
   -6.0471    4.3573    0.0000 N   0  0  0  0  0  0  0  0  0  0  0  0
   -6.7971    3.0583    0.0000 C   0  0  0  0  0  0  0  0  0  0  0  0
   -8.2643    2.7464    0.0000 C   0  0  0  0  0  0  0  0  0  0  0  0
   -8.7278    1.3198    0.0000 C   0  0  0  0  0  0  0  0  0  0  0  0
   -7.7241    0.2051    0.0000 C   0  0  0  0  0  0  0  0  0  0  0  0
   -6.2569    0.5170    0.0000 C   0  0  0  0  0  0  0  0  0  0  0  0
   -5.7934    1.9435    0.0000 C   0  0  0  0  0  0  0  0  0  0  0  0
  1  2  1  0
  2  3  1  0
  3  4  1  0
  4  5  1  0
  5  6  1  0
  6  7  1  0
  7  8  1  0
  8  9  3  0
  5 10  1  0
 10 11  2  0
 10 12  1  0
 12 13  2  0
 13 14  1  0
 14 15  2  0
 15 16  1  0
 16 17  2  0
 17 18  1  0
 18 19  1  0
 19 20  2  0
 17 21  1  0
 21 22  2  0
 22 23  1  0
 23 24  1  0
 24 25  2  0
 25 26  1  0
 26 27  2  0
 27 28  1  0
 28 29  2  0
 20 12  1  0
 19 15  1  0
 29 21  1  0
 29 24  1  0
M  END
>  <Molecule>  (697) 
CHEMBL1983348

>  <Standard Type>  (697) 
Ki

>  <Standard Relation>  (697) 
=

>  <Standard Value>  (697) 
501.19

>  <Standard Units>  (697) 
nM

>  <pChEMBL Value>  (697) 
6.3

>  <Comment>  (697) 
active

>  <Compound Key>  (697) 
SID103904905

>  <Assay>  (697) 
CHEMBL1963742

>  <Assay Description>  (697) 
PUBCHEM_BIOASSAY: Navigating the Kinome. (Class of assay: other) Panel member name: JAK3

>  <BAO Format>  (697) 
assay format

>  <Target>  (697) 
CHEMBL2148

>  <Target Pref. Name>  (697) 
Tyrosine-protein kinase JAK3

>  <Target Organism>  (697) 
Homo sapiens

>  <Target Type>  (697) 
SINGLE PROTEIN

>  <Document>  (697) 
CHEMBL1201862

>  <Source>  (697) 
PubChem BioAssays

>  <Max Phase>  (697) 
0

>  <#Ro5 Violations>  (697) 
0

>  <Molecular Weight>  (697) 
386.46

>  <Ligand Efficiency BEI>  (697) 
nan

>  <Ligand Efficiency LE>  (697) 
nan

>  <Ligand Efficiency LLE>  (697) 
nan

>  <Ligand Efficiency SEI>  (697) 
nan

>  <ALogP>  (697) 
4.26

>  <Assay Organism>  (697) 
nan

>  <Assay Tissue ChEMBL ID>  (697) 
nan

>  <Assay Tissue Name>  (697) 
nan

>  <Assay Cell Type>  (697) 
nan

>  <Assay Subcellular Fraction>  (697) 
nan

>  <Organism Tax ID>  (697) 
9606

>  <BAO Format ID>  (697) 
BAO_0000019

>  <Published Type>  (697) 
nan

>  <Published Relation>  (697) 
nan

>  <Published Value>  (697) 
nan

>  <Published Units>  (697) 
nan

>  <Canonical Smiles>  (697) 
CCCCN(CCC#N)C(=O)c1ccc2nc([nH]c2c1)c3n[nH]c4ccccc34

>  <Data Validity Comment>  (697) 
nan

>  <Document Journal>  (697) 
nan

>  <Document Year>  (697) 
nan

>  <SRC ID>  (697) 
7

>  <UO Units>  (697) 
UO_0000065

>  <Potential Duplicate>  (697) 
False

>  <Class>  (697) 
1

$$$$

     RDKit          2D

 26 29  0  0  0  0  0  0  0  0999 V2000
    2.2500   -9.0933    0.0000 N   0  0  0  0  0  0  0  0  0  0  0  0
    1.5000   -7.7942    0.0000 S   0  0  0  0  0  0  0  0  0  0  0  0
    0.2010   -8.5442    0.0000 O   0  0  0  0  0  0  0  0  0  0  0  0
    2.7990   -7.0442    0.0000 O   0  0  0  0  0  0  0  0  0  0  0  0
    0.7500   -6.4952    0.0000 C   0  0  0  0  0  0  0  0  0  0  0  0
   -0.7500   -6.4952    0.0000 C   0  0  0  0  0  0  0  0  0  0  0  0
   -1.5000   -5.1962    0.0000 C   0  0  0  0  0  0  0  0  0  0  0  0
   -0.7500   -3.8971    0.0000 C   0  0  0  0  0  0  0  0  0  0  0  0
    0.7500   -3.8971    0.0000 C   0  0  0  0  0  0  0  0  0  0  0  0
    1.5000   -2.5981    0.0000 N   0  0  0  0  0  0  0  0  0  0  0  0
    0.7500   -1.2990    0.0000 C   0  0  0  0  0  0  0  0  0  0  0  0
    1.5000    0.0000    0.0000 N   0  0  0  0  0  0  0  0  0  0  0  0
    0.7500    1.2990    0.0000 C   0  0  0  0  0  0  0  0  0  0  0  0
   -0.7500    1.2990    0.0000 C   0  0  0  0  0  0  0  0  0  0  0  0
   -1.7537    2.4138    0.0000 C   0  0  0  0  0  0  0  0  0  0  0  0
   -3.1240    1.8037    0.0000 C   0  0  0  0  0  0  0  0  0  0  0  0
   -2.9672    0.3119    0.0000 N   0  0  0  0  0  0  0  0  0  0  0  0
   -4.0819   -0.6918    0.0000 C   0  0  0  0  0  0  0  0  0  0  0  0
   -5.5085   -0.2283    0.0000 C   0  0  0  0  0  0  0  0  0  0  0  0
   -6.6232   -1.2320    0.0000 C   0  0  0  0  0  0  0  0  0  0  0  0
   -6.3114   -2.6992    0.0000 C   0  0  0  0  0  0  0  0  0  0  0  0
   -4.8848   -3.1627    0.0000 C   0  0  0  0  0  0  0  0  0  0  0  0
   -3.7701   -2.1590    0.0000 C   0  0  0  0  0  0  0  0  0  0  0  0
   -1.5000    0.0000    0.0000 C   0  0  0  0  0  0  0  0  0  0  0  0
   -0.7500   -1.2990    0.0000 N   0  0  0  0  0  0  0  0  0  0  0  0
    1.5000   -5.1962    0.0000 C   0  0  0  0  0  0  0  0  0  0  0  0
  1  2  1  0
  2  3  2  0
  2  4  2  0
  2  5  1  0
  5  6  2  0
  6  7  1  0
  7  8  2  0
  8  9  1  0
  9 10  1  0
 10 11  1  0
 11 12  2  0
 12 13  1  0
 13 14  2  0
 14 15  1  0
 15 16  2  0
 16 17  1  0
 17 18  1  0
 18 19  2  0
 19 20  1  0
 20 21  2  0
 21 22  1  0
 22 23  2  0
 17 24  1  0
 24 25  2  0
  9 26  2  0
 26  5  1  0
 25 11  1  0
 24 14  1  0
 23 18  1  0
M  END
>  <Molecule>  (698) 
CHEMBL1988163

>  <Standard Type>  (698) 
Ki

>  <Standard Relation>  (698) 
=

>  <Standard Value>  (698) 
19.95

>  <Standard Units>  (698) 
nM

>  <pChEMBL Value>  (698) 
7.7

>  <Comment>  (698) 
active

>  <Compound Key>  (698) 
SID103905250

>  <Assay>  (698) 
CHEMBL1963742

>  <Assay Description>  (698) 
PUBCHEM_BIOASSAY: Navigating the Kinome. (Class of assay: other) Panel member name: JAK3

>  <BAO Format>  (698) 
assay format

>  <Target>  (698) 
CHEMBL2148

>  <Target Pref. Name>  (698) 
Tyrosine-protein kinase JAK3

>  <Target Organism>  (698) 
Homo sapiens

>  <Target Type>  (698) 
SINGLE PROTEIN

>  <Document>  (698) 
CHEMBL1201862

>  <Source>  (698) 
PubChem BioAssays

>  <Max Phase>  (698) 
0

>  <#Ro5 Violations>  (698) 
0

>  <Molecular Weight>  (698) 
365.42

>  <Ligand Efficiency BEI>  (698) 
nan

>  <Ligand Efficiency LE>  (698) 
nan

>  <Ligand Efficiency LLE>  (698) 
nan

>  <Ligand Efficiency SEI>  (698) 
nan

>  <ALogP>  (698) 
2.81

>  <Assay Organism>  (698) 
nan

>  <Assay Tissue ChEMBL ID>  (698) 
nan

>  <Assay Tissue Name>  (698) 
nan

>  <Assay Cell Type>  (698) 
nan

>  <Assay Subcellular Fraction>  (698) 
nan

>  <Organism Tax ID>  (698) 
9606

>  <BAO Format ID>  (698) 
BAO_0000019

>  <Published Type>  (698) 
nan

>  <Published Relation>  (698) 
nan

>  <Published Value>  (698) 
nan

>  <Published Units>  (698) 
nan

>  <Canonical Smiles>  (698) 
NS(=O)(=O)c1cccc(Nc2ncc3ccn(c4ccccc4)c3n2)c1

>  <Data Validity Comment>  (698) 
nan

>  <Document Journal>  (698) 
nan

>  <Document Year>  (698) 
nan

>  <SRC ID>  (698) 
7

>  <UO Units>  (698) 
UO_0000065

>  <Potential Duplicate>  (698) 
False

>  <Class>  (698) 
1

$$$$

     RDKit          2D

 36 41  0  0  0  0  0  0  0  0999 V2000
   -1.4418   -6.4791    0.0000 C   0  0  0  0  0  0  0  0  0  0  0  0
   -1.7537   -5.0118    0.0000 N   0  0  0  0  0  0  0  0  0  0  0  0
   -3.1240   -4.4017    0.0000 C   0  0  0  0  0  0  0  0  0  0  0  0
   -4.4231   -5.1517    0.0000 O   0  0  0  0  0  0  0  0  0  0  0  0
   -2.9672   -2.9099    0.0000 N   0  0  0  0  0  0  0  0  0  0  0  0
   -4.0819   -1.9062    0.0000 C   0  0  0  0  0  0  0  0  0  0  0  0
   -3.7701   -0.4390    0.0000 C   0  0  0  0  0  0  0  0  0  0  0  0
   -4.8848    0.5647    0.0000 C   0  0  0  0  0  0  0  0  0  0  0  0
   -6.3114    0.1011    0.0000 C   0  0  0  0  0  0  0  0  0  0  0  0
   -6.6232   -1.3661    0.0000 C   0  0  0  0  0  0  0  0  0  0  0  0
   -5.5085   -2.3698    0.0000 C   0  0  0  0  0  0  0  0  0  0  0  0
   -7.4261    1.1048    0.0000 C   0  0  0  0  0  0  0  0  0  0  0  0
   -8.4298   -0.0099    0.0000 C   0  0  0  0  0  0  0  0  0  0  0  0
   -6.4224    2.2196    0.0000 C   0  0  0  0  0  0  0  0  0  0  0  0
   -8.5408    2.1085    0.0000 C   0  0  0  0  0  0  0  0  0  0  0  0
   -9.6555    3.1122    0.0000 N   0  0  0  0  0  0  0  0  0  0  0  0
   -1.5000   -2.5981    0.0000 C   0  0  0  0  0  0  0  0  0  0  0  0
   -0.7500   -3.8971    0.0000 C   0  0  0  0  0  0  0  0  0  0  0  0
    0.7500   -3.8971    0.0000 C   0  0  0  0  0  0  0  0  0  0  0  0
    1.5000   -2.5981    0.0000 N   0  0  0  0  0  0  0  0  0  0  0  0
    0.7500   -1.2990    0.0000 C   0  0  0  0  0  0  0  0  0  0  0  0
    1.5000    0.0000    0.0000 C   0  0  0  0  0  0  0  0  0  0  0  0
    0.7500    1.2990    0.0000 C   0  0  0  0  0  0  0  0  0  0  0  0
   -0.7500    1.2990    0.0000 C   0  0  0  0  0  0  0  0  0  0  0  0
   -1.5000    0.0000    0.0000 C   0  0  0  0  0  0  0  0  0  0  0  0
   -0.7500   -1.2990    0.0000 C   0  0  0  0  0  0  0  0  0  0  0  0
   -1.5000    2.5981    0.0000 C   0  0  0  0  0  0  0  0  0  0  0  0
   -3.0000    2.5981    0.0000 C   0  0  0  0  0  0  0  0  0  0  0  0
   -3.7500    3.8971    0.0000 N   0  0  0  0  0  0  0  0  0  0  0  0
   -3.0000    5.1962    0.0000 C   0  0  0  0  0  0  0  0  0  0  0  0
   -3.7500    6.4952    0.0000 C   0  0  0  0  0  0  0  0  0  0  0  0
   -3.0000    7.7942    0.0000 C   0  0  0  0  0  0  0  0  0  0  0  0
   -1.5000    7.7942    0.0000 C   0  0  0  0  0  0  0  0  0  0  0  0
   -0.7500    6.4952    0.0000 C   0  0  0  0  0  0  0  0  0  0  0  0
   -1.5000    5.1962    0.0000 C   0  0  0  0  0  0  0  0  0  0  0  0
   -0.7500    3.8971    0.0000 C   0  0  0  0  0  0  0  0  0  0  0  0
  1  2  1  0
  2  3  1  0
  3  4  2  0
  3  5  1  0
  5  6  1  0
  6  7  2  0
  7  8  1  0
  8  9  2  0
  9 10  1  0
 10 11  2  0
  9 12  1  0
 12 13  1  0
 12 14  1  0
 12 15  1  0
 15 16  3  0
  5 17  1  0
 17 18  2  0
 18 19  1  0
 19 20  2  0
 20 21  1  0
 21 22  2  0
 22 23  1  0
 23 24  2  0
 24 25  1  0
 25 26  2  0
 24 27  1  0
 27 28  2  0
 28 29  1  0
 29 30  2  0
 30 31  1  0
 31 32  2  0
 32 33  1  0
 33 34  2  0
 34 35  1  0
 35 36  2  0
 18  2  1  0
 11  6  1  0
 26 17  1  0
 26 21  1  0
 36 27  1  0
 35 30  1  0
M  END
>  <Molecule>  (699) 
CHEMBL1879463

>  <Standard Type>  (699) 
Ki

>  <Standard Relation>  (699) 
>

>  <Standard Value>  (699) 
3981.07

>  <Standard Units>  (699) 
nM

>  <pChEMBL Value>  (699) 
nan

>  <Comment>  (699) 
inactive

>  <Compound Key>  (699) 
SID103905146

>  <Assay>  (699) 
CHEMBL1963742

>  <Assay Description>  (699) 
PUBCHEM_BIOASSAY: Navigating the Kinome. (Class of assay: other) Panel member name: JAK3

>  <BAO Format>  (699) 
assay format

>  <Target>  (699) 
CHEMBL2148

>  <Target Pref. Name>  (699) 
Tyrosine-protein kinase JAK3

>  <Target Organism>  (699) 
Homo sapiens

>  <Target Type>  (699) 
SINGLE PROTEIN

>  <Document>  (699) 
CHEMBL1201862

>  <Source>  (699) 
PubChem BioAssays

>  <Max Phase>  (699) 
2

>  <#Ro5 Violations>  (699) 
1

>  <Molecular Weight>  (699) 
469.55

>  <Ligand Efficiency BEI>  (699) 
nan

>  <Ligand Efficiency LE>  (699) 
nan

>  <Ligand Efficiency LLE>  (699) 
nan

>  <Ligand Efficiency SEI>  (699) 
nan

>  <ALogP>  (699) 
5.89

>  <Assay Organism>  (699) 
nan

>  <Assay Tissue ChEMBL ID>  (699) 
nan

>  <Assay Tissue Name>  (699) 
nan

>  <Assay Cell Type>  (699) 
nan

>  <Assay Subcellular Fraction>  (699) 
nan

>  <Organism Tax ID>  (699) 
9606

>  <BAO Format ID>  (699) 
BAO_0000019

>  <Published Type>  (699) 
nan

>  <Published Relation>  (699) 
nan

>  <Published Value>  (699) 
nan

>  <Published Units>  (699) 
nan

>  <Canonical Smiles>  (699) 
CN1C(=O)N(c2ccc(cc2)C(C)(C)C#N)c3c1cnc4ccc(cc34)c5cnc6ccccc6c5

>  <Data Validity Comment>  (699) 
nan

>  <Document Journal>  (699) 
nan

>  <Document Year>  (699) 
nan

>  <SRC ID>  (699) 
7

>  <UO Units>  (699) 
UO_0000065

>  <Potential Duplicate>  (699) 
False

>  <Class>  (699) 
0

$$$$

     RDKit          2D

 28 31  0  0  0  0  0  0  0  0999 V2000
  -10.5000  -12.9904    0.0000 C   0  0  0  0  0  0  0  0  0  0  0  0
   -9.7500  -11.6913    0.0000 C   0  0  0  0  0  0  0  0  0  0  0  0
  -10.5000  -10.3923    0.0000 C   0  0  0  0  0  0  0  0  0  0  0  0
   -9.7500   -9.0933    0.0000 C   0  0  0  0  0  0  0  0  0  0  0  0
   -8.2500   -9.0933    0.0000 C   0  0  0  0  0  0  0  0  0  0  0  0
   -7.5000  -10.3923    0.0000 C   0  0  0  0  0  0  0  0  0  0  0  0
   -6.0000  -10.3923    0.0000 N   0  0  0  0  0  0  0  0  0  0  0  0
   -5.2500   -9.0933    0.0000 C   0  0  0  0  0  0  0  0  0  0  0  0
   -6.0000   -7.7942    0.0000 O   0  0  0  0  0  0  0  0  0  0  0  0
   -3.7500   -9.0933    0.0000 N   0  0  0  0  0  0  0  0  0  0  0  0
   -3.0000   -7.7942    0.0000 C   0  0  0  0  0  0  0  0  0  0  0  0
   -1.5000   -7.7942    0.0000 C   0  0  0  0  0  0  0  0  0  0  0  0
   -0.7500   -6.4952    0.0000 C   0  0  0  0  0  0  0  0  0  0  0  0
   -1.5000   -5.1962    0.0000 C   0  0  0  0  0  0  0  0  0  0  0  0
   -3.0000   -5.1962    0.0000 C   0  0  0  0  0  0  0  0  0  0  0  0
   -3.7500   -6.4952    0.0000 C   0  0  0  0  0  0  0  0  0  0  0  0
   -0.7500   -3.8971    0.0000 C   0  0  0  0  0  0  0  0  0  0  0  0
    0.7500   -3.8971    0.0000 C   0  0  0  0  0  0  0  0  0  0  0  0
    1.5000   -2.5981    0.0000 C   0  0  0  0  0  0  0  0  0  0  0  0
    0.7500   -1.2990    0.0000 C   0  0  0  0  0  0  0  0  0  0  0  0
    1.5000    0.0000    0.0000 N   0  0  0  0  0  0  0  0  0  0  0  0
    0.7500    1.2990    0.0000 C   0  0  0  0  0  0  0  0  0  0  0  0
   -0.7500    1.2990    0.0000 C   0  0  0  0  0  0  0  0  0  0  0  0
   -1.5000    0.0000    0.0000 N   0  0  0  0  0  0  0  0  0  0  0  0
   -0.7500   -1.2990    0.0000 C   0  0  0  0  0  0  0  0  0  0  0  0
   -1.5000   -2.5981    0.0000 C   0  0  0  0  0  0  0  0  0  0  0  0
   -3.0000   -2.5981    0.0000 N   0  0  0  0  0  0  0  0  0  0  0  0
   -8.2500  -11.6913    0.0000 C   0  0  0  0  0  0  0  0  0  0  0  0
  1  2  1  0
  2  3  2  0
  3  4  1  0
  4  5  2  0
  5  6  1  0
  6  7  1  0
  7  8  1  0
  8  9  2  0
  8 10  1  0
 10 11  1  0
 11 12  2  0
 12 13  1  0
 13 14  2  0
 14 15  1  0
 15 16  2  0
 14 17  1  0
 17 18  2  0
 18 19  1  0
 19 20  2  0
 20 21  1  0
 21 22  2  0
 22 23  1  0
 23 24  2  0
 24 25  1  0
 25 26  2  0
 26 27  1  0
  6 28  2  0
 28  2  1  0
 16 11  1  0
 26 17  1  0
 25 20  1  0
M  END
>  <Molecule>  (700) 
CHEMBL507936

>  <Standard Type>  (700) 
Ki

>  <Standard Relation>  (700) 
>

>  <Standard Value>  (700) 
1584.89

>  <Standard Units>  (700) 
nM

>  <pChEMBL Value>  (700) 
nan

>  <Comment>  (700) 
inactive

>  <Compound Key>  (700) 
SID103904369

>  <Assay>  (700) 
CHEMBL1963742

>  <Assay Description>  (700) 
PUBCHEM_BIOASSAY: Navigating the Kinome. (Class of assay: other) Panel member name: JAK3

>  <BAO Format>  (700) 
assay format

>  <Target>  (700) 
CHEMBL2148

>  <Target Pref. Name>  (700) 
Tyrosine-protein kinase JAK3

>  <Target Organism>  (700) 
Homo sapiens

>  <Target Type>  (700) 
SINGLE PROTEIN

>  <Document>  (700) 
CHEMBL1201862

>  <Source>  (700) 
PubChem BioAssays

>  <Max Phase>  (700) 
0

>  <#Ro5 Violations>  (700) 
0

>  <Molecular Weight>  (700) 
369.43

>  <Ligand Efficiency BEI>  (700) 
nan

>  <Ligand Efficiency LE>  (700) 
nan

>  <Ligand Efficiency LLE>  (700) 
nan

>  <Ligand Efficiency SEI>  (700) 
nan

>  <ALogP>  (700) 
4.83

>  <Assay Organism>  (700) 
nan

>  <Assay Tissue ChEMBL ID>  (700) 
nan

>  <Assay Tissue Name>  (700) 
nan

>  <Assay Cell Type>  (700) 
nan

>  <Assay Subcellular Fraction>  (700) 
nan

>  <Organism Tax ID>  (700) 
9606

>  <BAO Format ID>  (700) 
BAO_0000019

>  <Published Type>  (700) 
nan

>  <Published Relation>  (700) 
nan

>  <Published Value>  (700) 
nan

>  <Published Units>  (700) 
nan

>  <Canonical Smiles>  (700) 
Cc1cccc(NC(=O)Nc2ccc(cc2)c3ccc4nccnc4c3N)c1

>  <Data Validity Comment>  (700) 
nan

>  <Document Journal>  (700) 
nan

>  <Document Year>  (700) 
nan

>  <SRC ID>  (700) 
7

>  <UO Units>  (700) 
UO_0000065

>  <Potential Duplicate>  (700) 
False

>  <Class>  (700) 
0

$$$$

     RDKit          2D

 32 36  0  0  0  0  0  0  0  0999 V2000
    8.0182   -0.4070    0.0000 C   0  0  0  0  0  0  0  0  0  0  0  0
    8.3301    1.0602    0.0000 C   0  0  0  0  0  0  0  0  0  0  0  0
    7.2154    2.0639    0.0000 N   0  0  0  0  0  0  0  0  0  0  0  0
    5.7888    1.6004    0.0000 C   0  0  0  0  0  0  0  0  0  0  0  0
    4.6741    2.6041    0.0000 C   0  0  0  0  0  0  0  0  0  0  0  0
    4.9859    4.0713    0.0000 N   0  0  0  0  0  0  0  0  0  0  0  0
    6.4125    4.5348    0.0000 C   0  0  0  0  0  0  0  0  0  0  0  0
    7.5272    3.5312    0.0000 C   0  0  0  0  0  0  0  0  0  0  0  0
    3.8712    5.0750    0.0000 C   0  0  0  0  0  0  0  0  0  0  0  0
    4.1831    6.5422    0.0000 C   0  0  0  0  0  0  0  0  0  0  0  0
    3.0684    7.5459    0.0000 C   0  0  0  0  0  0  0  0  0  0  0  0
    1.6418    7.0824    0.0000 C   0  0  0  0  0  0  0  0  0  0  0  0
    0.5271    8.0861    0.0000 N   0  0  0  0  0  0  0  0  0  0  0  0
   -0.8995    7.6226    0.0000 C   0  0  0  0  0  0  0  0  0  0  0  0
   -2.0143    8.6263    0.0000 N   0  0  0  0  0  0  0  0  0  0  0  0
   -3.4408    8.1628    0.0000 C   0  0  0  0  0  0  0  0  0  0  0  0
   -3.7527    6.6955    0.0000 C   0  0  0  0  0  0  0  0  0  0  0  0
   -5.1793    6.2320    0.0000 Cl  0  0  0  0  0  0  0  0  0  0  0  0
   -2.6380    5.6918    0.0000 C   0  0  0  0  0  0  0  0  0  0  0  0
   -2.9499    4.2246    0.0000 N   0  0  0  0  0  0  0  0  0  0  0  0
   -1.8351    3.2209    0.0000 C   0  0  0  0  0  0  0  0  0  0  0  0
   -0.4086    3.6844    0.0000 C   0  0  0  0  0  0  0  0  0  0  0  0
    0.7062    2.6807    0.0000 C   0  0  0  0  0  0  0  0  0  0  0  0
    0.3943    1.2135    0.0000 C   0  0  0  0  0  0  0  0  0  0  0  0
    1.2760    0.0000    0.0000 N   0  0  0  0  0  0  0  0  0  0  0  0
    0.3943   -1.2135    0.0000 N   0  0  0  0  0  0  0  0  0  0  0  0
   -1.0323   -0.7500    0.0000 C   0  0  0  0  0  0  0  0  0  0  0  0
   -1.0323    0.7500    0.0000 C   0  0  0  0  0  0  0  0  0  0  0  0
   -2.1470    1.7537    0.0000 C   0  0  0  0  0  0  0  0  0  0  0  0
   -1.2114    6.1554    0.0000 N   0  0  0  0  0  0  0  0  0  0  0  0
    1.3299    5.6152    0.0000 C   0  0  0  0  0  0  0  0  0  0  0  0
    2.4446    4.6115    0.0000 C   0  0  0  0  0  0  0  0  0  0  0  0
  1  2  1  0
  2  3  1  0
  3  4  1  0
  4  5  1  0
  5  6  1  0
  6  7  1  0
  7  8  1  0
  6  9  1  0
  9 10  2  0
 10 11  1  0
 11 12  2  0
 12 13  1  0
 13 14  1  0
 14 15  2  0
 15 16  1  0
 16 17  2  0
 17 18  1  0
 17 19  1  0
 19 20  1  0
 20 21  1  0
 21 22  2  0
 22 23  1  0
 23 24  2  0
 24 25  1  0
 25 26  1  0
 26 27  2  0
 27 28  1  0
 28 29  2  0
 19 30  2  0
 12 31  1  0
 31 32  2  0
  8  3  1  0
 32  9  1  0
 30 14  1  0
 29 21  1  0
 28 24  1  0
M  END
>  <Molecule>  (701) 
CHEMBL1967998

>  <Standard Type>  (701) 
Ki

>  <Standard Relation>  (701) 
=

>  <Standard Value>  (701) 
63.1

>  <Standard Units>  (701) 
nM

>  <pChEMBL Value>  (701) 
7.2

>  <Comment>  (701) 
active

>  <Compound Key>  (701) 
SID103904599

>  <Assay>  (701) 
CHEMBL1963742

>  <Assay Description>  (701) 
PUBCHEM_BIOASSAY: Navigating the Kinome. (Class of assay: other) Panel member name: JAK3

>  <BAO Format>  (701) 
assay format

>  <Target>  (701) 
CHEMBL2148

>  <Target Pref. Name>  (701) 
Tyrosine-protein kinase JAK3

>  <Target Organism>  (701) 
Homo sapiens

>  <Target Type>  (701) 
SINGLE PROTEIN

>  <Document>  (701) 
CHEMBL1201862

>  <Source>  (701) 
PubChem BioAssays

>  <Max Phase>  (701) 
0

>  <#Ro5 Violations>  (701) 
0

>  <Molecular Weight>  (701) 
448.96

>  <Ligand Efficiency BEI>  (701) 
nan

>  <Ligand Efficiency LE>  (701) 
nan

>  <Ligand Efficiency LLE>  (701) 
nan

>  <Ligand Efficiency SEI>  (701) 
nan

>  <ALogP>  (701) 
4.64

>  <Assay Organism>  (701) 
nan

>  <Assay Tissue ChEMBL ID>  (701) 
nan

>  <Assay Tissue Name>  (701) 
nan

>  <Assay Cell Type>  (701) 
nan

>  <Assay Subcellular Fraction>  (701) 
nan

>  <Organism Tax ID>  (701) 
9606

>  <BAO Format ID>  (701) 
BAO_0000019

>  <Published Type>  (701) 
nan

>  <Published Relation>  (701) 
nan

>  <Published Value>  (701) 
nan

>  <Published Units>  (701) 
nan

>  <Canonical Smiles>  (701) 
CCN1CCN(CC1)c2ccc(Nc3ncc(Cl)c(Nc4ccc5[nH]ncc5c4)n3)cc2

>  <Data Validity Comment>  (701) 
nan

>  <Document Journal>  (701) 
nan

>  <Document Year>  (701) 
nan

>  <SRC ID>  (701) 
7

>  <UO Units>  (701) 
UO_0000065

>  <Potential Duplicate>  (701) 
False

>  <Class>  (701) 
1

$$$$

     RDKit          2D

 20 22  0  0  0  0  0  0  0  0999 V2000
    7.5000   -2.5981    0.0000 O   0  0  0  0  0  0  0  0  0  0  0  0
    6.0000   -2.5981    0.0000 C   0  0  0  0  0  0  0  0  0  0  0  0
    5.2500   -1.2990    0.0000 C   0  0  0  0  0  0  0  0  0  0  0  0
    3.7500   -1.2990    0.0000 C   0  0  0  0  0  0  0  0  0  0  0  0
    3.0000    0.0000    0.0000 N   0  0  0  0  0  0  0  0  0  0  0  0
    1.5000    0.0000    0.0000 C   0  0  0  0  0  0  0  0  0  0  0  0
    0.7500   -1.2990    0.0000 N   0  0  0  0  0  0  0  0  0  0  0  0
   -0.7500   -1.2990    0.0000 C   0  0  0  0  0  0  0  0  0  0  0  0
   -1.5000    0.0000    0.0000 N   0  0  0  0  0  0  0  0  0  0  0  0
   -0.7500    1.2990    0.0000 C   0  0  0  0  0  0  0  0  0  0  0  0
   -1.2135    2.7256    0.0000 N   0  0  0  0  0  0  0  0  0  0  0  0
   -0.0000    3.6073    0.0000 C   0  0  0  0  0  0  0  0  0  0  0  0
    1.2135    2.7256    0.0000 C   0  0  0  0  0  0  0  0  0  0  0  0
    2.6401    3.1891    0.0000 C   0  0  0  0  0  0  0  0  0  0  0  0
    3.7548    2.1855    0.0000 C   0  0  0  0  0  0  0  0  0  0  0  0
    5.1814    2.6490    0.0000 C   0  0  0  0  0  0  0  0  0  0  0  0
    5.4933    4.1162    0.0000 C   0  0  0  0  0  0  0  0  0  0  0  0
    4.3786    5.1199    0.0000 C   0  0  0  0  0  0  0  0  0  0  0  0
    2.9520    4.6564    0.0000 C   0  0  0  0  0  0  0  0  0  0  0  0
    0.7500    1.2990    0.0000 C   0  0  0  0  0  0  0  0  0  0  0  0
  1  2  1  0
  2  3  1  0
  3  4  1  0
  4  5  1  0
  5  6  1  0
  6  7  2  0
  7  8  1  0
  8  9  2  0
  9 10  1  0
 10 11  1  0
 11 12  1  0
 12 13  2  0
 13 14  1  0
 14 15  2  0
 15 16  1  0
 16 17  2  0
 17 18  1  0
 18 19  2  0
 13 20  1  0
 20  6  1  0
 20 10  2  0
 19 14  1  0
M  END
>  <Molecule>  (702) 
CHEMBL2000071

>  <Standard Type>  (702) 
Ki

>  <Standard Relation>  (702) 
=

>  <Standard Value>  (702) 
501.19

>  <Standard Units>  (702) 
nM

>  <pChEMBL Value>  (702) 
6.3

>  <Comment>  (702) 
active

>  <Compound Key>  (702) 
SID103904212

>  <Assay>  (702) 
CHEMBL1963742

>  <Assay Description>  (702) 
PUBCHEM_BIOASSAY: Navigating the Kinome. (Class of assay: other) Panel member name: JAK3

>  <BAO Format>  (702) 
assay format

>  <Target>  (702) 
CHEMBL2148

>  <Target Pref. Name>  (702) 
Tyrosine-protein kinase JAK3

>  <Target Organism>  (702) 
Homo sapiens

>  <Target Type>  (702) 
SINGLE PROTEIN

>  <Document>  (702) 
CHEMBL1201862

>  <Source>  (702) 
PubChem BioAssays

>  <Max Phase>  (702) 
0

>  <#Ro5 Violations>  (702) 
0

>  <Molecular Weight>  (702) 
268.32

>  <Ligand Efficiency BEI>  (702) 
nan

>  <Ligand Efficiency LE>  (702) 
nan

>  <Ligand Efficiency LLE>  (702) 
nan

>  <Ligand Efficiency SEI>  (702) 
nan

>  <ALogP>  (702) 
2.42

>  <Assay Organism>  (702) 
nan

>  <Assay Tissue ChEMBL ID>  (702) 
nan

>  <Assay Tissue Name>  (702) 
nan

>  <Assay Cell Type>  (702) 
nan

>  <Assay Subcellular Fraction>  (702) 
nan

>  <Organism Tax ID>  (702) 
9606

>  <BAO Format ID>  (702) 
BAO_0000019

>  <Published Type>  (702) 
nan

>  <Published Relation>  (702) 
nan

>  <Published Value>  (702) 
nan

>  <Published Units>  (702) 
nan

>  <Canonical Smiles>  (702) 
OCCCNc1ncnc2[nH]cc(c3ccccc3)c12

>  <Data Validity Comment>  (702) 
nan

>  <Document Journal>  (702) 
nan

>  <Document Year>  (702) 
nan

>  <SRC ID>  (702) 
7

>  <UO Units>  (702) 
UO_0000065

>  <Potential Duplicate>  (702) 
False

>  <Class>  (702) 
1

$$$$

     RDKit          2D

 35 38  0  0  0  0  0  0  0  0999 V2000
    3.7500   -1.2990    0.0000 C   0  0  0  0  0  0  0  0  0  0  0  0
    3.0000    0.0000    0.0000 N   0  0  0  0  0  0  0  0  0  0  0  0
    3.7500    1.2990    0.0000 C   0  0  0  0  0  0  0  0  0  0  0  0
    1.5000    0.0000    0.0000 C   0  0  0  0  0  0  0  0  0  0  0  0
    0.7500   -1.2990    0.0000 C   0  0  0  0  0  0  0  0  0  0  0  0
   -0.7500   -1.2990    0.0000 C   0  0  0  0  0  0  0  0  0  0  0  0
   -1.5000    0.0000    0.0000 C   0  0  0  0  0  0  0  0  0  0  0  0
   -0.7500    1.2990    0.0000 C   0  0  0  0  0  0  0  0  0  0  0  0
    0.7500    1.2990    0.0000 C   0  0  0  0  0  0  0  0  0  0  0  0
   -3.0000    0.0000    0.0000 C   0  0  0  0  0  0  0  0  0  0  0  0
   -3.7500    1.2990    0.0000 C   0  0  0  0  0  0  0  0  0  0  0  0
   -5.2500    1.2990    0.0000 C   0  0  0  0  0  0  0  0  0  0  0  0
   -6.0000    0.0000    0.0000 N   0  0  0  0  0  0  0  0  0  0  0  0
   -5.2500   -1.2990    0.0000 C   0  0  0  0  0  0  0  0  0  0  0  0
   -6.0000   -2.5981    0.0000 N   0  0  0  0  0  0  0  0  0  0  0  0
   -7.5000   -2.5981    0.0000 S   0  0  0  0  0  0  0  0  0  0  0  0
   -7.5000   -1.0981    0.0000 O   0  0  0  0  0  0  0  0  0  0  0  0
   -7.5000   -4.0981    0.0000 O   0  0  0  0  0  0  0  0  0  0  0  0
   -9.0000   -2.5981    0.0000 C   0  0  0  0  0  0  0  0  0  0  0  0
   -9.7500   -1.2990    0.0000 C   0  0  0  0  0  0  0  0  0  0  0  0
  -11.2500   -1.2990    0.0000 C   0  0  0  0  0  0  0  0  0  0  0  0
  -12.0000   -2.5981    0.0000 C   0  0  0  0  0  0  0  0  0  0  0  0
  -13.5000   -2.5981    0.0000 N   0  0  0  0  0  0  0  0  0  0  0  0
  -11.2500   -3.8971    0.0000 C   0  0  0  0  0  0  0  0  0  0  0  0
   -9.7500   -3.8971    0.0000 C   0  0  0  0  0  0  0  0  0  0  0  0
   -3.7500   -1.2990    0.0000 N   0  0  0  0  0  0  0  0  0  0  0  0
   -6.0000    2.5981    0.0000 C   0  0  0  0  0  0  0  0  0  0  0  0
   -5.2500    3.8971    0.0000 C   0  0  0  0  0  0  0  0  0  0  0  0
   -6.0000    5.1962    0.0000 C   0  0  0  0  0  0  0  0  0  0  0  0
   -7.5000    5.1962    0.0000 C   0  0  0  0  0  0  0  0  0  0  0  0
   -8.2500    3.8971    0.0000 C   0  0  0  0  0  0  0  0  0  0  0  0
   -7.5000    2.5981    0.0000 C   0  0  0  0  0  0  0  0  0  0  0  0
   -8.2500    6.4952    0.0000 N   0  0  0  0  0  0  0  0  0  0  0  0
   -9.7500    6.4952    0.0000 O   0  0  0  0  0  0  0  0  0  0  0  0
   -7.5000    7.7942    0.0000 O   0  0  0  0  0  0  0  0  0  0  0  0
  1  2  1  0
  2  3  1  0
  2  4  1  0
  4  5  2  0
  5  6  1  0
  6  7  2  0
  7  8  1  0
  8  9  2  0
  7 10  1  0
 10 11  2  0
 11 12  1  0
 12 13  2  0
 13 14  1  0
 14 15  1  0
 15 16  1  0
 16 17  2  0
 16 18  2  0
 16 19  1  0
 19 20  2  0
 20 21  1  0
 21 22  2  0
 22 23  1  0
 22 24  1  0
 24 25  2  0
 14 26  2  0
 12 27  1  0
 27 28  2  0
 28 29  1  0
 29 30  2  0
 30 31  1  0
 31 32  2  0
 30 33  1  0
 33 34  2  0
 33 35  1  0
  9  4  1  0
 26 10  1  0
 25 19  1  0
 32 27  1  0
M  CHG  2  33   1  35  -1
M  END
>  <Molecule>  (703) 
CHEMBL1980167

>  <Standard Type>  (703) 
Ki

>  <Standard Relation>  (703) 
>

>  <Standard Value>  (703) 
5011.87

>  <Standard Units>  (703) 
nM

>  <pChEMBL Value>  (703) 
nan

>  <Comment>  (703) 
inactive

>  <Compound Key>  (703) 
SID103904865

>  <Assay>  (703) 
CHEMBL1963742

>  <Assay Description>  (703) 
PUBCHEM_BIOASSAY: Navigating the Kinome. (Class of assay: other) Panel member name: JAK3

>  <BAO Format>  (703) 
assay format

>  <Target>  (703) 
CHEMBL2148

>  <Target Pref. Name>  (703) 
Tyrosine-protein kinase JAK3

>  <Target Organism>  (703) 
Homo sapiens

>  <Target Type>  (703) 
SINGLE PROTEIN

>  <Document>  (703) 
CHEMBL1201862

>  <Source>  (703) 
PubChem BioAssays

>  <Max Phase>  (703) 
0

>  <#Ro5 Violations>  (703) 
0

>  <Molecular Weight>  (703) 
490.55

>  <Ligand Efficiency BEI>  (703) 
nan

>  <Ligand Efficiency LE>  (703) 
nan

>  <Ligand Efficiency LLE>  (703) 
nan

>  <Ligand Efficiency SEI>  (703) 
nan

>  <ALogP>  (703) 
4.17

>  <Assay Organism>  (703) 
nan

>  <Assay Tissue ChEMBL ID>  (703) 
nan

>  <Assay Tissue Name>  (703) 
nan

>  <Assay Cell Type>  (703) 
nan

>  <Assay Subcellular Fraction>  (703) 
nan

>  <Organism Tax ID>  (703) 
9606

>  <BAO Format ID>  (703) 
BAO_0000019

>  <Published Type>  (703) 
nan

>  <Published Relation>  (703) 
nan

>  <Published Value>  (703) 
nan

>  <Published Units>  (703) 
nan

>  <Canonical Smiles>  (703) 
CN(C)c1ccc(cc1)c2cc(nc(NS(=O)(=O)c3ccc(N)cc3)n2)c4ccc(cc4)[N+](=O)[O-]

>  <Data Validity Comment>  (703) 
nan

>  <Document Journal>  (703) 
nan

>  <Document Year>  (703) 
nan

>  <SRC ID>  (703) 
7

>  <UO Units>  (703) 
UO_0000065

>  <Potential Duplicate>  (703) 
False

>  <Class>  (703) 
0

$$$$

     RDKit          2D

 26 27  0  0  0  0  0  0  0  0999 V2000
    5.2500   -1.2990    0.0000 C   0  0  0  0  0  0  0  0  0  0  0  0
    3.7500   -1.2990    0.0000 C   0  0  0  0  0  0  0  0  0  0  0  0
    3.0000    0.0000    0.0000 O   0  0  0  0  0  0  0  0  0  0  0  0
    1.5000    0.0000    0.0000 C   0  0  0  0  0  0  0  0  0  0  0  0
    0.7500   -1.2990    0.0000 N   0  0  0  0  0  0  0  0  0  0  0  0
   -0.7500   -1.2990    0.0000 C   0  0  0  0  0  0  0  0  0  0  0  0
   -1.5000    0.0000    0.0000 C   0  0  0  0  0  0  0  0  0  0  0  0
   -0.7500    1.2990    0.0000 C   0  0  0  0  0  0  0  0  0  0  0  0
   -1.5000    2.5981    0.0000 N   0  0  0  0  0  0  0  0  0  0  0  0
    0.7500    1.2990    0.0000 C   0  0  0  0  0  0  0  0  0  0  0  0
    1.5000    2.5981    0.0000 C   0  0  0  0  0  0  0  0  0  0  0  0
    2.2500    3.8971    0.0000 N   0  0  0  0  0  0  0  0  0  0  0  0
   -1.5000   -2.5981    0.0000 C   0  0  0  0  0  0  0  0  0  0  0  0
   -0.7500   -3.8971    0.0000 O   0  0  0  0  0  0  0  0  0  0  0  0
   -3.0000   -2.5981    0.0000 N   0  0  0  0  0  0  0  0  0  0  0  0
   -3.7500   -3.8971    0.0000 C   0  0  0  0  0  0  0  0  0  0  0  0
   -5.2500   -3.8971    0.0000 C   0  0  0  0  0  0  0  0  0  0  0  0
   -6.0000   -2.5981    0.0000 C   0  0  0  0  0  0  0  0  0  0  0  0
   -7.5000   -2.5981    0.0000 C   0  0  0  0  0  0  0  0  0  0  0  0
   -8.2500   -3.8971    0.0000 C   0  0  0  0  0  0  0  0  0  0  0  0
   -7.5000   -5.1962    0.0000 C   0  0  0  0  0  0  0  0  0  0  0  0
   -6.0000   -5.1962    0.0000 C   0  0  0  0  0  0  0  0  0  0  0  0
   -5.2500   -6.4952    0.0000 S   0  0  0  0  0  0  0  0  0  0  0  0
   -6.5490   -7.2452    0.0000 O   0  0  0  0  0  0  0  0  0  0  0  0
   -3.9510   -5.7452    0.0000 O   0  0  0  0  0  0  0  0  0  0  0  0
   -4.5000   -7.7942    0.0000 N   0  0  0  0  0  0  0  0  0  0  0  0
  1  2  1  0
  2  3  1  0
  3  4  1  0
  4  5  2  0
  5  6  1  0
  6  7  2  0
  7  8  1  0
  8  9  1  0
  8 10  2  0
 10 11  1  0
 11 12  3  0
  6 13  1  0
 13 14  2  0
 13 15  1  0
 15 16  1  0
 16 17  1  0
 17 18  2  0
 18 19  1  0
 19 20  2  0
 20 21  1  0
 21 22  2  0
 22 23  1  0
 23 24  2  0
 23 25  2  0
 23 26  1  0
 10  4  1  0
 22 17  1  0
M  END
>  <Molecule>  (704) 
CHEMBL377408

>  <Standard Type>  (704) 
Ki

>  <Standard Relation>  (704) 
>

>  <Standard Value>  (704) 
5011.87

>  <Standard Units>  (704) 
nM

>  <pChEMBL Value>  (704) 
nan

>  <Comment>  (704) 
inactive

>  <Compound Key>  (704) 
SID103905185

>  <Assay>  (704) 
CHEMBL1963742

>  <Assay Description>  (704) 
PUBCHEM_BIOASSAY: Navigating the Kinome. (Class of assay: other) Panel member name: JAK3

>  <BAO Format>  (704) 
assay format

>  <Target>  (704) 
CHEMBL2148

>  <Target Pref. Name>  (704) 
Tyrosine-protein kinase JAK3

>  <Target Organism>  (704) 
Homo sapiens

>  <Target Type>  (704) 
SINGLE PROTEIN

>  <Document>  (704) 
CHEMBL1201862

>  <Source>  (704) 
PubChem BioAssays

>  <Max Phase>  (704) 
0

>  <#Ro5 Violations>  (704) 
0

>  <Molecular Weight>  (704) 
375.41

>  <Ligand Efficiency BEI>  (704) 
nan

>  <Ligand Efficiency LE>  (704) 
nan

>  <Ligand Efficiency LLE>  (704) 
nan

>  <Ligand Efficiency SEI>  (704) 
nan

>  <ALogP>  (704) 
0.51

>  <Assay Organism>  (704) 
nan

>  <Assay Tissue ChEMBL ID>  (704) 
nan

>  <Assay Tissue Name>  (704) 
nan

>  <Assay Cell Type>  (704) 
nan

>  <Assay Subcellular Fraction>  (704) 
nan

>  <Organism Tax ID>  (704) 
9606

>  <BAO Format ID>  (704) 
BAO_0000019

>  <Published Type>  (704) 
nan

>  <Published Relation>  (704) 
nan

>  <Published Value>  (704) 
nan

>  <Published Units>  (704) 
nan

>  <Canonical Smiles>  (704) 
CCOc1nc(cc(N)c1C#N)C(=O)NCc2ccccc2S(=O)(=O)N

>  <Data Validity Comment>  (704) 
nan

>  <Document Journal>  (704) 
nan

>  <Document Year>  (704) 
nan

>  <SRC ID>  (704) 
7

>  <UO Units>  (704) 
UO_0000065

>  <Potential Duplicate>  (704) 
False

>  <Class>  (704) 
0

$$$$

     RDKit          2D

 27 30  0  0  0  0  0  0  0  0999 V2000
   -6.1170   -7.0506    0.0000 C   0  0  0  0  0  0  0  0  0  0  0  0
   -4.6904   -6.5871    0.0000 C   0  0  0  0  0  0  0  0  0  0  0  0
   -4.3786   -5.1199    0.0000 C   0  0  0  0  0  0  0  0  0  0  0  0
   -2.9520   -4.6564    0.0000 C   0  0  0  0  0  0  0  0  0  0  0  0
   -1.8373   -5.6601    0.0000 O   0  0  0  0  0  0  0  0  0  0  0  0
   -2.6401   -3.1891    0.0000 N   0  0  0  0  0  0  0  0  0  0  0  0
   -1.2135   -2.7256    0.0000 C   0  0  0  0  0  0  0  0  0  0  0  0
   -0.0000   -3.6073    0.0000 N   0  0  0  0  0  0  0  0  0  0  0  0
    1.2135   -2.7256    0.0000 N   0  0  0  0  0  0  0  0  0  0  0  0
    0.7500   -1.2990    0.0000 C   0  0  0  0  0  0  0  0  0  0  0  0
    1.5000    0.0000    0.0000 C   0  0  0  0  0  0  0  0  0  0  0  0
    0.7500    1.2990    0.0000 C   0  0  0  0  0  0  0  0  0  0  0  0
   -0.7500    1.2990    0.0000 C   0  0  0  0  0  0  0  0  0  0  0  0
   -1.5000    0.0000    0.0000 C   0  0  0  0  0  0  0  0  0  0  0  0
   -0.7500   -1.2990    0.0000 C   0  0  0  0  0  0  0  0  0  0  0  0
   -1.5000    2.5981    0.0000 C   0  0  0  0  0  0  0  0  0  0  0  0
   -2.9918    2.7549    0.0000 C   0  0  0  0  0  0  0  0  0  0  0  0
   -3.3037    4.2221    0.0000 N   0  0  0  0  0  0  0  0  0  0  0  0
   -4.6740    4.8322    0.0000 C   0  0  0  0  0  0  0  0  0  0  0  0
   -4.8308    6.3240    0.0000 C   0  0  0  0  0  0  0  0  0  0  0  0
   -3.6172    7.2057    0.0000 C   0  0  0  0  0  0  0  0  0  0  0  0
   -3.7740    8.6974    0.0000 C   0  0  0  0  0  0  0  0  0  0  0  0
   -5.1443    9.3075    0.0000 C   0  0  0  0  0  0  0  0  0  0  0  0
   -6.3579    8.4259    0.0000 C   0  0  0  0  0  0  0  0  0  0  0  0
   -6.2011    6.9341    0.0000 C   0  0  0  0  0  0  0  0  0  0  0  0
   -2.0046    4.9721    0.0000 N   0  0  0  0  0  0  0  0  0  0  0  0
   -0.8899    3.9684    0.0000 N   0  0  0  0  0  0  0  0  0  0  0  0
  1  2  1  0
  2  3  1  0
  3  4  1  0
  4  5  2  0
  4  6  1  0
  6  7  1  0
  7  8  2  0
  8  9  1  0
  9 10  1  0
 10 11  2  0
 11 12  1  0
 12 13  2  0
 13 14  1  0
 14 15  2  0
 13 16  1  0
 16 17  2  0
 17 18  1  0
 18 19  1  0
 19 20  1  0
 20 21  2  0
 21 22  1  0
 22 23  2  0
 23 24  1  0
 24 25  2  0
 18 26  1  0
 26 27  2  0
 15  7  1  0
 15 10  1  0
 27 16  1  0
 25 20  1  0
M  END
>  <Molecule>  (705) 
CHEMBL1977223

>  <Standard Type>  (705) 
Ki

>  <Standard Relation>  (705) 
>

>  <Standard Value>  (705) 
1584.89

>  <Standard Units>  (705) 
nM

>  <pChEMBL Value>  (705) 
nan

>  <Comment>  (705) 
inactive

>  <Compound Key>  (705) 
SID103904519

>  <Assay>  (705) 
CHEMBL1963742

>  <Assay Description>  (705) 
PUBCHEM_BIOASSAY: Navigating the Kinome. (Class of assay: other) Panel member name: JAK3

>  <BAO Format>  (705) 
assay format

>  <Target>  (705) 
CHEMBL2148

>  <Target Pref. Name>  (705) 
Tyrosine-protein kinase JAK3

>  <Target Organism>  (705) 
Homo sapiens

>  <Target Type>  (705) 
SINGLE PROTEIN

>  <Document>  (705) 
CHEMBL1201862

>  <Source>  (705) 
PubChem BioAssays

>  <Max Phase>  (705) 
0

>  <#Ro5 Violations>  (705) 
0

>  <Molecular Weight>  (705) 
360.42

>  <Ligand Efficiency BEI>  (705) 
nan

>  <Ligand Efficiency LE>  (705) 
nan

>  <Ligand Efficiency LLE>  (705) 
nan

>  <Ligand Efficiency SEI>  (705) 
nan

>  <ALogP>  (705) 
3.61

>  <Assay Organism>  (705) 
nan

>  <Assay Tissue ChEMBL ID>  (705) 
nan

>  <Assay Tissue Name>  (705) 
nan

>  <Assay Cell Type>  (705) 
nan

>  <Assay Subcellular Fraction>  (705) 
nan

>  <Organism Tax ID>  (705) 
9606

>  <BAO Format ID>  (705) 
BAO_0000019

>  <Published Type>  (705) 
nan

>  <Published Relation>  (705) 
nan

>  <Published Value>  (705) 
nan

>  <Published Units>  (705) 
nan

>  <Canonical Smiles>  (705) 
CCCC(=O)Nc1n[nH]c2ccc(cc12)c3cn(Cc4ccccc4)nn3

>  <Data Validity Comment>  (705) 
nan

>  <Document Journal>  (705) 
nan

>  <Document Year>  (705) 
nan

>  <SRC ID>  (705) 
7

>  <UO Units>  (705) 
UO_0000065

>  <Potential Duplicate>  (705) 
False

>  <Class>  (705) 
0

$$$$

     RDKit          2D

 28 30  0  0  0  0  0  0  0  0999 V2000
    1.7745   13.9550    0.0000 C   0  0  0  0  0  0  0  0  0  0  0  0
    1.4627   12.4878    0.0000 C   0  0  0  0  0  0  0  0  0  0  0  0
    0.0361   12.0242    0.0000 C   0  0  0  0  0  0  0  0  0  0  0  0
   -0.2758   10.5570    0.0000 N   0  0  0  0  0  0  0  0  0  0  0  0
   -1.7024   10.0935    0.0000 C   0  0  0  0  0  0  0  0  0  0  0  0
   -2.8171   11.0972    0.0000 O   0  0  0  0  0  0  0  0  0  0  0  0
   -2.0143    8.6263    0.0000 C   0  0  0  0  0  0  0  0  0  0  0  0
   -0.8995    7.6226    0.0000 C   0  0  0  0  0  0  0  0  0  0  0  0
   -1.2114    6.1554    0.0000 C   0  0  0  0  0  0  0  0  0  0  0  0
   -2.6380    5.6918    0.0000 C   0  0  0  0  0  0  0  0  0  0  0  0
   -2.9499    4.2246    0.0000 N   0  0  0  0  0  0  0  0  0  0  0  0
   -1.8351    3.2209    0.0000 C   0  0  0  0  0  0  0  0  0  0  0  0
   -0.4086    3.6844    0.0000 N   0  0  0  0  0  0  0  0  0  0  0  0
    0.7062    2.6807    0.0000 C   0  0  0  0  0  0  0  0  0  0  0  0
    2.1328    3.1443    0.0000 C   0  0  0  0  0  0  0  0  0  0  0  0
    2.4446    4.6115    0.0000 C   0  0  0  0  0  0  0  0  0  0  0  0
    3.8712    5.0750    0.0000 C   0  0  0  0  0  0  0  0  0  0  0  0
    5.2978    5.5385    0.0000 F   0  0  0  0  0  0  0  0  0  0  0  0
    3.4077    6.5016    0.0000 F   0  0  0  0  0  0  0  0  0  0  0  0
    4.3347    3.6484    0.0000 F   0  0  0  0  0  0  0  0  0  0  0  0
    0.3943    1.2135    0.0000 C   0  0  0  0  0  0  0  0  0  0  0  0
    1.2760    0.0000    0.0000 C   0  0  0  0  0  0  0  0  0  0  0  0
    0.3943   -1.2135    0.0000 C   0  0  0  0  0  0  0  0  0  0  0  0
   -1.0323   -0.7500    0.0000 N   0  0  0  0  0  0  0  0  0  0  0  0
   -1.0323    0.7500    0.0000 C   0  0  0  0  0  0  0  0  0  0  0  0
   -2.1470    1.7537    0.0000 N   0  0  0  0  0  0  0  0  0  0  0  0
   -3.7527    6.6955    0.0000 C   0  0  0  0  0  0  0  0  0  0  0  0
   -3.4408    8.1628    0.0000 C   0  0  0  0  0  0  0  0  0  0  0  0
  1  2  1  0
  2  3  1  0
  3  4  1  0
  4  5  1  0
  5  6  2  0
  5  7  1  0
  7  8  2  0
  8  9  1  0
  9 10  2  0
 10 11  1  0
 11 12  1  0
 12 13  2  0
 13 14  1  0
 14 15  1  0
 15 16  1  0
 16 17  1  0
 17 18  1  0
 17 19  1  0
 17 20  1  0
 14 21  2  0
 21 22  1  0
 22 23  2  0
 23 24  1  0
 24 25  1  0
 25 26  2  0
 10 27  1  0
 27 28  2  0
 28  7  1  0
 26 12  1  0
 25 21  1  0
M  END
>  <Molecule>  (706) 
CHEMBL1984760

>  <Standard Type>  (706) 
Ki

>  <Standard Relation>  (706) 
=

>  <Standard Value>  (706) 
2511.89

>  <Standard Units>  (706) 
nM

>  <pChEMBL Value>  (706) 
5.6

>  <Comment>  (706) 
active

>  <Compound Key>  (706) 
SID103904640

>  <Assay>  (706) 
CHEMBL1963742

>  <Assay Description>  (706) 
PUBCHEM_BIOASSAY: Navigating the Kinome. (Class of assay: other) Panel member name: JAK3

>  <BAO Format>  (706) 
assay format

>  <Target>  (706) 
CHEMBL2148

>  <Target Pref. Name>  (706) 
Tyrosine-protein kinase JAK3

>  <Target Organism>  (706) 
Homo sapiens

>  <Target Type>  (706) 
SINGLE PROTEIN

>  <Document>  (706) 
CHEMBL1201862

>  <Source>  (706) 
PubChem BioAssays

>  <Max Phase>  (706) 
0

>  <#Ro5 Violations>  (706) 
0

>  <Molecular Weight>  (706) 
391.4

>  <Ligand Efficiency BEI>  (706) 
nan

>  <Ligand Efficiency LE>  (706) 
nan

>  <Ligand Efficiency LLE>  (706) 
nan

>  <Ligand Efficiency SEI>  (706) 
nan

>  <ALogP>  (706) 
4.34

>  <Assay Organism>  (706) 
nan

>  <Assay Tissue ChEMBL ID>  (706) 
nan

>  <Assay Tissue Name>  (706) 
nan

>  <Assay Cell Type>  (706) 
nan

>  <Assay Subcellular Fraction>  (706) 
nan

>  <Organism Tax ID>  (706) 
9606

>  <BAO Format ID>  (706) 
BAO_0000019

>  <Published Type>  (706) 
nan

>  <Published Relation>  (706) 
nan

>  <Published Value>  (706) 
nan

>  <Published Units>  (706) 
nan

>  <Canonical Smiles>  (706) 
CCCNC(=O)c1ccc(Nc2nc(CCC(F)(F)F)c3cc[nH]c3n2)cc1

>  <Data Validity Comment>  (706) 
nan

>  <Document Journal>  (706) 
nan

>  <Document Year>  (706) 
nan

>  <SRC ID>  (706) 
7

>  <UO Units>  (706) 
UO_0000065

>  <Potential Duplicate>  (706) 
False

>  <Class>  (706) 
1

$$$$

     RDKit          2D

 28 31  0  0  0  0  0  0  0  0999 V2000
    5.2500   -6.4952    0.0000 C   0  0  0  0  0  0  0  0  0  0  0  0
    3.7500   -6.4952    0.0000 N   0  0  0  0  0  0  0  0  0  0  0  0
    3.0000   -5.1962    0.0000 C   0  0  0  0  0  0  0  0  0  0  0  0
    3.7500   -3.8971    0.0000 O   0  0  0  0  0  0  0  0  0  0  0  0
    1.5000   -5.1962    0.0000 C   0  0  0  0  0  0  0  0  0  0  0  0
    0.7500   -6.4952    0.0000 C   0  0  0  0  0  0  0  0  0  0  0  0
   -0.7500   -6.4952    0.0000 C   0  0  0  0  0  0  0  0  0  0  0  0
   -1.5000   -5.1962    0.0000 C   0  0  0  0  0  0  0  0  0  0  0  0
   -0.7500   -3.8971    0.0000 C   0  0  0  0  0  0  0  0  0  0  0  0
    0.7500   -3.8971    0.0000 C   0  0  0  0  0  0  0  0  0  0  0  0
    1.5000   -2.5981    0.0000 S   0  0  0  0  0  0  0  0  0  0  0  0
    0.7500   -1.2990    0.0000 C   0  0  0  0  0  0  0  0  0  0  0  0
    1.5000    0.0000    0.0000 C   0  0  0  0  0  0  0  0  0  0  0  0
    0.7500    1.2990    0.0000 C   0  0  0  0  0  0  0  0  0  0  0  0
   -0.7500    1.2990    0.0000 C   0  0  0  0  0  0  0  0  0  0  0  0
   -1.7537    2.4138    0.0000 C   0  0  0  0  0  0  0  0  0  0  0  0
   -1.4418    3.8810    0.0000 C   0  0  0  0  0  0  0  0  0  0  0  0
   -2.5565    4.8847    0.0000 C   0  0  0  0  0  0  0  0  0  0  0  0
   -2.2447    6.3519    0.0000 C   0  0  0  0  0  0  0  0  0  0  0  0
   -0.8181    6.8154    0.0000 C   0  0  0  0  0  0  0  0  0  0  0  0
   -0.5062    8.2826    0.0000 C   0  0  0  0  0  0  0  0  0  0  0  0
   -1.6209    9.2863    0.0000 C   0  0  0  0  0  0  0  0  0  0  0  0
   -3.0475    8.8228    0.0000 C   0  0  0  0  0  0  0  0  0  0  0  0
   -3.3594    7.3556    0.0000 N   0  0  0  0  0  0  0  0  0  0  0  0
   -3.1240    1.8037    0.0000 N   0  0  0  0  0  0  0  0  0  0  0  0
   -2.9672    0.3119    0.0000 N   0  0  0  0  0  0  0  0  0  0  0  0
   -1.5000    0.0000    0.0000 C   0  0  0  0  0  0  0  0  0  0  0  0
   -0.7500   -1.2990    0.0000 C   0  0  0  0  0  0  0  0  0  0  0  0
  1  2  1  0
  2  3  1  0
  3  4  2  0
  3  5  1  0
  5  6  2  0
  6  7  1  0
  7  8  2  0
  8  9  1  0
  9 10  2  0
 10 11  1  0
 11 12  1  0
 12 13  2  0
 13 14  1  0
 14 15  2  0
 15 16  1  0
 16 17  1  0
 17 18  2  3
 18 19  1  0
 19 20  2  0
 20 21  1  0
 21 22  2  0
 22 23  1  0
 23 24  2  0
 16 25  2  0
 25 26  1  0
 26 27  1  0
 27 28  2  0
 10  5  1  0
 28 12  1  0
 27 15  1  0
 24 19  1  0
M  END
>  <Molecule>  (707) 
CHEMBL1988437

>  <Standard Type>  (707) 
Ki

>  <Standard Relation>  (707) 
>

>  <Standard Value>  (707) 
2511.89

>  <Standard Units>  (707) 
nM

>  <pChEMBL Value>  (707) 
nan

>  <Comment>  (707) 
inactive

>  <Compound Key>  (707) 
SID103905539

>  <Assay>  (707) 
CHEMBL1963742

>  <Assay Description>  (707) 
PUBCHEM_BIOASSAY: Navigating the Kinome. (Class of assay: other) Panel member name: JAK3

>  <BAO Format>  (707) 
assay format

>  <Target>  (707) 
CHEMBL2148

>  <Target Pref. Name>  (707) 
Tyrosine-protein kinase JAK3

>  <Target Organism>  (707) 
Homo sapiens

>  <Target Type>  (707) 
SINGLE PROTEIN

>  <Document>  (707) 
CHEMBL1201862

>  <Source>  (707) 
PubChem BioAssays

>  <Max Phase>  (707) 
0

>  <#Ro5 Violations>  (707) 
0

>  <Molecular Weight>  (707) 
386.48

>  <Ligand Efficiency BEI>  (707) 
nan

>  <Ligand Efficiency LE>  (707) 
nan

>  <Ligand Efficiency LLE>  (707) 
nan

>  <Ligand Efficiency SEI>  (707) 
nan

>  <ALogP>  (707) 
4.64

>  <Assay Organism>  (707) 
nan

>  <Assay Tissue ChEMBL ID>  (707) 
nan

>  <Assay Tissue Name>  (707) 
nan

>  <Assay Cell Type>  (707) 
nan

>  <Assay Subcellular Fraction>  (707) 
nan

>  <Organism Tax ID>  (707) 
9606

>  <BAO Format ID>  (707) 
BAO_0000019

>  <Published Type>  (707) 
nan

>  <Published Relation>  (707) 
nan

>  <Published Value>  (707) 
nan

>  <Published Units>  (707) 
nan

>  <Canonical Smiles>  (707) 
CNC(=O)c1ccccc1Sc2ccc3c(C=Cc4ccccn4)n[nH]c3c2

>  <Data Validity Comment>  (707) 
nan

>  <Document Journal>  (707) 
nan

>  <Document Year>  (707) 
nan

>  <SRC ID>  (707) 
7

>  <UO Units>  (707) 
UO_0000065

>  <Potential Duplicate>  (707) 
False

>  <Class>  (707) 
0

$$$$

     RDKit          2D

 26 29  0  0  0  0  0  0  0  0999 V2000
   -0.7500   -6.4952    0.0000 C   0  0  0  0  0  0  0  0  0  0  0  0
    0.7500   -6.4952    0.0000 O   0  0  0  0  0  0  0  0  0  0  0  0
    1.5000   -5.1962    0.0000 C   0  0  0  0  0  0  0  0  0  0  0  0
    0.7500   -3.8971    0.0000 C   0  0  0  0  0  0  0  0  0  0  0  0
    1.5000   -2.5981    0.0000 C   0  0  0  0  0  0  0  0  0  0  0  0
    3.0000   -2.5981    0.0000 C   0  0  0  0  0  0  0  0  0  0  0  0
    3.7500   -3.8971    0.0000 C   0  0  0  0  0  0  0  0  0  0  0  0
    3.0000   -5.1962    0.0000 C   0  0  0  0  0  0  0  0  0  0  0  0
    3.7500   -6.4952    0.0000 O   0  0  0  0  0  0  0  0  0  0  0  0
    0.7500   -1.2990    0.0000 C   0  0  0  0  0  0  0  0  0  0  0  0
    1.5000    0.0000    0.0000 C   0  0  0  0  0  0  0  0  0  0  0  0
    0.7500    1.2990    0.0000 C   0  0  0  0  0  0  0  0  0  0  0  0
   -0.7500    1.2990    0.0000 C   0  0  0  0  0  0  0  0  0  0  0  0
   -1.2980    2.6953    0.0000 C   0  0  0  0  0  0  0  0  0  0  0  0
   -0.2778    3.7949    0.0000 O   0  0  0  0  0  0  0  0  0  0  0  0
   -2.7314    3.1375    0.0000 N   0  0  0  0  0  0  0  0  0  0  0  0
   -3.9707    2.2925    0.0000 C   0  0  0  0  0  0  0  0  0  0  0  0
   -5.2101    3.1375    0.0000 C   0  0  0  0  0  0  0  0  0  0  0  0
   -6.5615    2.4867    0.0000 C   0  0  0  0  0  0  0  0  0  0  0  0
   -6.6736    0.9909    0.0000 C   0  0  0  0  0  0  0  0  0  0  0  0
   -5.4343    0.1459    0.0000 C   0  0  0  0  0  0  0  0  0  0  0  0
   -5.5464   -1.3499    0.0000 O   0  0  0  0  0  0  0  0  0  0  0  0
   -4.0828    0.7967    0.0000 C   0  0  0  0  0  0  0  0  0  0  0  0
   -2.9832   -0.2236    0.0000 N   0  0  0  0  0  0  0  0  0  0  0  0
   -1.5000    0.0000    0.0000 C   0  0  0  0  0  0  0  0  0  0  0  0
   -0.7500   -1.2990    0.0000 C   0  0  0  0  0  0  0  0  0  0  0  0
  1  2  1  0
  2  3  1  0
  3  4  2  0
  4  5  1  0
  5  6  2  0
  6  7  1  0
  7  8  2  0
  8  9  1  0
  5 10  1  0
 10 11  2  0
 11 12  1  0
 12 13  2  0
 13 14  1  0
 14 15  2  0
 14 16  1  0
 16 17  1  0
 17 18  2  0
 18 19  1  0
 19 20  2  0
 20 21  1  0
 21 22  1  0
 21 23  2  0
 23 24  1  0
 24 25  1  0
 25 26  2  0
  8  3  1  0
 26 10  1  0
 25 13  1  0
 23 17  1  0
M  END
>  <Molecule>  (708) 
CHEMBL550418

>  <Standard Type>  (708) 
Ki

>  <Standard Relation>  (708) 
>

>  <Standard Value>  (708) 
5011.87

>  <Standard Units>  (708) 
nM

>  <pChEMBL Value>  (708) 
nan

>  <Comment>  (708) 
inactive

>  <Compound Key>  (708) 
SID103904708

>  <Assay>  (708) 
CHEMBL1963742

>  <Assay Description>  (708) 
PUBCHEM_BIOASSAY: Navigating the Kinome. (Class of assay: other) Panel member name: JAK3

>  <BAO Format>  (708) 
assay format

>  <Target>  (708) 
CHEMBL2148

>  <Target Pref. Name>  (708) 
Tyrosine-protein kinase JAK3

>  <Target Organism>  (708) 
Homo sapiens

>  <Target Type>  (708) 
SINGLE PROTEIN

>  <Document>  (708) 
CHEMBL1201862

>  <Source>  (708) 
PubChem BioAssays

>  <Max Phase>  (708) 
0

>  <#Ro5 Violations>  (708) 
0

>  <Molecular Weight>  (708) 
348.36

>  <Ligand Efficiency BEI>  (708) 
nan

>  <Ligand Efficiency LE>  (708) 
nan

>  <Ligand Efficiency LLE>  (708) 
nan

>  <Ligand Efficiency SEI>  (708) 
nan

>  <ALogP>  (708) 
4.08

>  <Assay Organism>  (708) 
nan

>  <Assay Tissue ChEMBL ID>  (708) 
nan

>  <Assay Tissue Name>  (708) 
nan

>  <Assay Cell Type>  (708) 
nan

>  <Assay Subcellular Fraction>  (708) 
nan

>  <Organism Tax ID>  (708) 
9606

>  <BAO Format ID>  (708) 
BAO_0000019

>  <Published Type>  (708) 
nan

>  <Published Relation>  (708) 
nan

>  <Published Value>  (708) 
nan

>  <Published Units>  (708) 
nan

>  <Canonical Smiles>  (708) 
COc1cc(ccc1O)c2ccc3C(=O)Nc4cccc(O)c4Nc3c2

>  <Data Validity Comment>  (708) 
nan

>  <Document Journal>  (708) 
nan

>  <Document Year>  (708) 
nan

>  <SRC ID>  (708) 
7

>  <UO Units>  (708) 
UO_0000065

>  <Potential Duplicate>  (708) 
False

>  <Class>  (708) 
0

$$$$

     RDKit          2D

 20 22  0  0  0  0  0  0  0  0999 V2000
    7.5000   -2.5981    0.0000 C   0  0  0  0  0  0  0  0  0  0  0  0
    6.0000   -2.5981    0.0000 C   0  0  0  0  0  0  0  0  0  0  0  0
    5.2500   -1.2990    0.0000 C   0  0  0  0  0  0  0  0  0  0  0  0
    3.7500   -1.2990    0.0000 C   0  0  0  0  0  0  0  0  0  0  0  0
    3.0000    0.0000    0.0000 O   0  0  0  0  0  0  0  0  0  0  0  0
    1.5000    0.0000    0.0000 C   0  0  0  0  0  0  0  0  0  0  0  0
    0.7500   -1.2990    0.0000 N   0  0  0  0  0  0  0  0  0  0  0  0
   -0.7500   -1.2990    0.0000 C   0  0  0  0  0  0  0  0  0  0  0  0
   -1.5000    0.0000    0.0000 N   0  0  0  0  0  0  0  0  0  0  0  0
   -0.7500    1.2990    0.0000 C   0  0  0  0  0  0  0  0  0  0  0  0
   -1.2135    2.7256    0.0000 N   0  0  0  0  0  0  0  0  0  0  0  0
   -0.0000    3.6073    0.0000 C   0  0  0  0  0  0  0  0  0  0  0  0
    1.2135    2.7256    0.0000 C   0  0  0  0  0  0  0  0  0  0  0  0
    2.6401    3.1891    0.0000 C   0  0  0  0  0  0  0  0  0  0  0  0
    3.7548    2.1855    0.0000 C   0  0  0  0  0  0  0  0  0  0  0  0
    5.1814    2.6490    0.0000 C   0  0  0  0  0  0  0  0  0  0  0  0
    5.4933    4.1162    0.0000 C   0  0  0  0  0  0  0  0  0  0  0  0
    4.3786    5.1199    0.0000 C   0  0  0  0  0  0  0  0  0  0  0  0
    2.9520    4.6564    0.0000 C   0  0  0  0  0  0  0  0  0  0  0  0
    0.7500    1.2990    0.0000 C   0  0  0  0  0  0  0  0  0  0  0  0
  1  2  1  0
  2  3  1  0
  3  4  1  0
  4  5  1  0
  5  6  1  0
  6  7  2  0
  7  8  1  0
  8  9  2  0
  9 10  1  0
 10 11  1  0
 11 12  1  0
 12 13  2  0
 13 14  1  0
 14 15  2  0
 15 16  1  0
 16 17  2  0
 17 18  1  0
 18 19  2  0
 13 20  1  0
 20  6  1  0
 20 10  2  0
 19 14  1  0
M  END
>  <Molecule>  (709) 
CHEMBL1996817

>  <Standard Type>  (709) 
Ki

>  <Standard Relation>  (709) 
>

>  <Standard Value>  (709) 
630.96

>  <Standard Units>  (709) 
nM

>  <pChEMBL Value>  (709) 
nan

>  <Comment>  (709) 
inactive

>  <Compound Key>  (709) 
SID103904502

>  <Assay>  (709) 
CHEMBL1963742

>  <Assay Description>  (709) 
PUBCHEM_BIOASSAY: Navigating the Kinome. (Class of assay: other) Panel member name: JAK3

>  <BAO Format>  (709) 
assay format

>  <Target>  (709) 
CHEMBL2148

>  <Target Pref. Name>  (709) 
Tyrosine-protein kinase JAK3

>  <Target Organism>  (709) 
Homo sapiens

>  <Target Type>  (709) 
SINGLE PROTEIN

>  <Document>  (709) 
CHEMBL1201862

>  <Source>  (709) 
PubChem BioAssays

>  <Max Phase>  (709) 
0

>  <#Ro5 Violations>  (709) 
0

>  <Molecular Weight>  (709) 
267.33

>  <Ligand Efficiency BEI>  (709) 
nan

>  <Ligand Efficiency LE>  (709) 
nan

>  <Ligand Efficiency LLE>  (709) 
nan

>  <Ligand Efficiency SEI>  (709) 
nan

>  <ALogP>  (709) 
3.8

>  <Assay Organism>  (709) 
nan

>  <Assay Tissue ChEMBL ID>  (709) 
nan

>  <Assay Tissue Name>  (709) 
nan

>  <Assay Cell Type>  (709) 
nan

>  <Assay Subcellular Fraction>  (709) 
nan

>  <Organism Tax ID>  (709) 
9606

>  <BAO Format ID>  (709) 
BAO_0000019

>  <Published Type>  (709) 
nan

>  <Published Relation>  (709) 
nan

>  <Published Value>  (709) 
nan

>  <Published Units>  (709) 
nan

>  <Canonical Smiles>  (709) 
CCCCOc1ncnc2[nH]cc(c3ccccc3)c12

>  <Data Validity Comment>  (709) 
nan

>  <Document Journal>  (709) 
nan

>  <Document Year>  (709) 
nan

>  <SRC ID>  (709) 
7

>  <UO Units>  (709) 
UO_0000065

>  <Potential Duplicate>  (709) 
False

>  <Class>  (709) 
0

$$$$

     RDKit          2D

 29 32  0  0  0  0  0  0  0  0999 V2000
   -2.9499    4.2246    0.0000 C   0  0  0  0  0  0  0  0  0  0  0  0
   -1.8351    3.2209    0.0000 C   0  0  0  0  0  0  0  0  0  0  0  0
   -0.4086    3.6844    0.0000 C   0  0  0  0  0  0  0  0  0  0  0  0
    0.7062    2.6807    0.0000 C   0  0  0  0  0  0  0  0  0  0  0  0
    2.1328    3.1443    0.0000 C   0  0  0  0  0  0  0  0  0  0  0  0
    0.3943    1.2135    0.0000 C   0  0  0  0  0  0  0  0  0  0  0  0
    1.2760    0.0000    0.0000 O   0  0  0  0  0  0  0  0  0  0  0  0
    0.3943   -1.2135    0.0000 C   0  0  0  0  0  0  0  0  0  0  0  0
    0.8578   -2.6401    0.0000 N   0  0  0  0  0  0  0  0  0  0  0  0
   -0.1459   -3.7548    0.0000 C   0  0  0  0  0  0  0  0  0  0  0  0
   -1.6131   -3.4430    0.0000 C   0  0  0  0  0  0  0  0  0  0  0  0
   -2.6168   -4.5577    0.0000 C   0  0  0  0  0  0  0  0  0  0  0  0
   -2.1533   -5.9843    0.0000 C   0  0  0  0  0  0  0  0  0  0  0  0
   -0.6860   -6.2961    0.0000 C   0  0  0  0  0  0  0  0  0  0  0  0
    0.3177   -5.1814    0.0000 C   0  0  0  0  0  0  0  0  0  0  0  0
    1.7849   -5.4933    0.0000 F   0  0  0  0  0  0  0  0  0  0  0  0
   -3.1570   -7.0990    0.0000 C   0  0  0  0  0  0  0  0  0  0  0  0
   -4.6242   -6.7871    0.0000 C   0  0  0  0  0  0  0  0  0  0  0  0
   -5.6279   -7.9018    0.0000 C   0  0  0  0  0  0  0  0  0  0  0  0
   -5.1644   -9.3284    0.0000 C   0  0  0  0  0  0  0  0  0  0  0  0
   -3.6971   -9.6403    0.0000 C   0  0  0  0  0  0  0  0  0  0  0  0
   -3.2336  -11.0669    0.0000 C   0  0  0  0  0  0  0  0  0  0  0  0
   -1.7664  -11.3787    0.0000 O   0  0  0  0  0  0  0  0  0  0  0  0
   -4.2373  -12.1816    0.0000 N   0  0  0  0  0  0  0  0  0  0  0  0
   -2.6934   -8.5256    0.0000 C   0  0  0  0  0  0  0  0  0  0  0  0
   -1.2262   -8.8374    0.0000 N   0  0  0  0  0  0  0  0  0  0  0  0
   -1.0323   -0.7500    0.0000 N   0  0  0  0  0  0  0  0  0  0  0  0
   -1.0323    0.7500    0.0000 C   0  0  0  0  0  0  0  0  0  0  0  0
   -2.1470    1.7537    0.0000 C   0  0  0  0  0  0  0  0  0  0  0  0
  1  2  1  0
  2  3  2  0
  3  4  1  0
  4  5  1  0
  4  6  2  0
  6  7  1  0
  7  8  1  0
  8  9  1  0
  9 10  1  0
 10 11  2  0
 11 12  1  0
 12 13  2  0
 13 14  1  0
 14 15  2  0
 15 16  1  0
 13 17  1  0
 17 18  2  0
 18 19  1  0
 19 20  2  0
 20 21  1  0
 21 22  1  0
 22 23  2  0
 22 24  1  0
 21 25  2  0
 25 26  1  0
  8 27  2  0
 27 28  1  0
 28 29  2  0
 29  2  1  0
 28  6  1  0
 15 10  1  0
 25 17  1  0
M  END
>  <Molecule>  (710) 
CHEMBL1990884

>  <Standard Type>  (710) 
Ki

>  <Standard Relation>  (710) 
>

>  <Standard Value>  (710) 
1584.89

>  <Standard Units>  (710) 
nM

>  <pChEMBL Value>  (710) 
nan

>  <Comment>  (710) 
inactive

>  <Compound Key>  (710) 
SID103905315

>  <Assay>  (710) 
CHEMBL1963742

>  <Assay Description>  (710) 
PUBCHEM_BIOASSAY: Navigating the Kinome. (Class of assay: other) Panel member name: JAK3

>  <BAO Format>  (710) 
assay format

>  <Target>  (710) 
CHEMBL2148

>  <Target Pref. Name>  (710) 
Tyrosine-protein kinase JAK3

>  <Target Organism>  (710) 
Homo sapiens

>  <Target Type>  (710) 
SINGLE PROTEIN

>  <Document>  (710) 
CHEMBL1201862

>  <Source>  (710) 
PubChem BioAssays

>  <Max Phase>  (710) 
0

>  <#Ro5 Violations>  (710) 
0

>  <Molecular Weight>  (710) 
390.42

>  <Ligand Efficiency BEI>  (710) 
nan

>  <Ligand Efficiency LE>  (710) 
nan

>  <Ligand Efficiency LLE>  (710) 
nan

>  <Ligand Efficiency SEI>  (710) 
nan

>  <ALogP>  (710) 
4.68

>  <Assay Organism>  (710) 
nan

>  <Assay Tissue ChEMBL ID>  (710) 
nan

>  <Assay Tissue Name>  (710) 
nan

>  <Assay Cell Type>  (710) 
nan

>  <Assay Subcellular Fraction>  (710) 
nan

>  <Organism Tax ID>  (710) 
9606

>  <BAO Format ID>  (710) 
BAO_0000019

>  <Published Type>  (710) 
nan

>  <Published Relation>  (710) 
nan

>  <Published Value>  (710) 
nan

>  <Published Units>  (710) 
nan

>  <Canonical Smiles>  (710) 
Cc1cc(C)c2oc(Nc3ccc(cc3F)c4cccc(C(=O)N)c4N)nc2c1

>  <Data Validity Comment>  (710) 
nan

>  <Document Journal>  (710) 
nan

>  <Document Year>  (710) 
nan

>  <SRC ID>  (710) 
7

>  <UO Units>  (710) 
UO_0000065

>  <Potential Duplicate>  (710) 
False

>  <Class>  (710) 
0

$$$$

     RDKit          2D

 37 40  0  0  0  0  0  0  0  0999 V2000
    2.0229   -4.1579    0.0000 C   0  0  0  0  0  0  0  0  0  0  0  0
    1.0192   -5.2726    0.0000 N   0  0  0  0  0  0  0  0  0  0  0  0
    1.4827   -6.6992    0.0000 C   0  0  0  0  0  0  0  0  0  0  0  0
    2.9499   -7.0111    0.0000 C   0  0  0  0  0  0  0  0  0  0  0  0
    3.4134   -8.4377    0.0000 C   0  0  0  0  0  0  0  0  0  0  0  0
    3.8770   -9.8643    0.0000 N   0  0  0  0  0  0  0  0  0  0  0  0
   -0.4481   -4.9608    0.0000 C   0  0  0  0  0  0  0  0  0  0  0  0
   -0.9116   -3.5342    0.0000 O   0  0  0  0  0  0  0  0  0  0  0  0
   -1.4518   -6.0755    0.0000 C   0  0  0  0  0  0  0  0  0  0  0  0
   -0.9882   -7.5021    0.0000 C   0  0  0  0  0  0  0  0  0  0  0  0
   -1.9919   -8.6168    0.0000 C   0  0  0  0  0  0  0  0  0  0  0  0
   -3.4591   -8.3049    0.0000 C   0  0  0  0  0  0  0  0  0  0  0  0
   -3.9227   -6.8783    0.0000 C   0  0  0  0  0  0  0  0  0  0  0  0
   -2.9190   -5.7636    0.0000 C   0  0  0  0  0  0  0  0  0  0  0  0
   -5.3899   -6.5665    0.0000 N   0  0  0  0  0  0  0  0  0  0  0  0
   -6.5046   -7.5702    0.0000 N   0  0  0  0  0  0  0  0  0  0  0  0
   -7.8037   -6.8202    0.0000 C   0  0  0  0  0  0  0  0  0  0  0  0
   -7.4918   -5.3529    0.0000 C   0  0  0  0  0  0  0  0  0  0  0  0
   -6.0000   -5.1962    0.0000 C   0  0  0  0  0  0  0  0  0  0  0  0
   -5.2500   -3.8971    0.0000 N   0  0  0  0  0  0  0  0  0  0  0  0
   -6.0000   -2.5981    0.0000 C   0  0  0  0  0  0  0  0  0  0  0  0
   -7.5000   -2.5981    0.0000 O   0  0  0  0  0  0  0  0  0  0  0  0
   -5.2500   -1.2990    0.0000 N   0  0  0  0  0  0  0  0  0  0  0  0
   -6.0000    0.0000    0.0000 C   0  0  0  0  0  0  0  0  0  0  0  0
   -7.5000    0.0000    0.0000 C   0  0  0  0  0  0  0  0  0  0  0  0
   -8.2500    1.2990    0.0000 C   0  0  0  0  0  0  0  0  0  0  0  0
   -7.5000    2.5981    0.0000 C   0  0  0  0  0  0  0  0  0  0  0  0
   -6.0000    2.5981    0.0000 C   0  0  0  0  0  0  0  0  0  0  0  0
   -5.2500    3.8971    0.0000 C   0  0  0  0  0  0  0  0  0  0  0  0
   -3.7500    3.8971    0.0000 C   0  0  0  0  0  0  0  0  0  0  0  0
   -3.0000    2.5981    0.0000 C   0  0  0  0  0  0  0  0  0  0  0  0
   -3.7500    1.2990    0.0000 C   0  0  0  0  0  0  0  0  0  0  0  0
   -5.2500    1.2990    0.0000 C   0  0  0  0  0  0  0  0  0  0  0  0
   -9.1740   -7.4303    0.0000 C   0  0  0  0  0  0  0  0  0  0  0  0
   -9.7841   -6.0600    0.0000 C   0  0  0  0  0  0  0  0  0  0  0  0
   -8.5639   -8.8006    0.0000 C   0  0  0  0  0  0  0  0  0  0  0  0
  -10.5443   -8.0404    0.0000 C   0  0  0  0  0  0  0  0  0  0  0  0
  1  2  1  0
  2  3  1  0
  3  4  1  0
  4  5  1  0
  5  6  3  0
  2  7  1  0
  7  8  2  0
  7  9  1  0
  9 10  2  0
 10 11  1  0
 11 12  2  0
 12 13  1  0
 13 14  2  0
 13 15  1  0
 15 16  1  0
 16 17  2  0
 17 18  1  0
 18 19  2  0
 19 20  1  0
 20 21  1  0
 21 22  2  0
 21 23  1  0
 23 24  1  0
 24 25  2  0
 25 26  1  0
 26 27  2  0
 27 28  1  0
 28 29  2  0
 29 30  1  0
 30 31  2  0
 31 32  1  0
 32 33  2  0
 17 34  1  0
 34 35  1  0
 34 36  1  0
 34 37  1  0
 14  9  1  0
 19 15  1  0
 33 24  1  0
 33 28  1  0
M  END
>  <Molecule>  (711) 
CHEMBL1974998

>  <Standard Type>  (711) 
Ki

>  <Standard Relation>  (711) 
>

>  <Standard Value>  (711) 
5011.87

>  <Standard Units>  (711) 
nM

>  <pChEMBL Value>  (711) 
nan

>  <Comment>  (711) 
inactive

>  <Compound Key>  (711) 
SID103904852

>  <Assay>  (711) 
CHEMBL1963742

>  <Assay Description>  (711) 
PUBCHEM_BIOASSAY: Navigating the Kinome. (Class of assay: other) Panel member name: JAK3

>  <BAO Format>  (711) 
assay format

>  <Target>  (711) 
CHEMBL2148

>  <Target Pref. Name>  (711) 
Tyrosine-protein kinase JAK3

>  <Target Organism>  (711) 
Homo sapiens

>  <Target Type>  (711) 
SINGLE PROTEIN

>  <Document>  (711) 
CHEMBL1201862

>  <Source>  (711) 
PubChem BioAssays

>  <Max Phase>  (711) 
0

>  <#Ro5 Violations>  (711) 
1

>  <Molecular Weight>  (711) 
494.6

>  <Ligand Efficiency BEI>  (711) 
nan

>  <Ligand Efficiency LE>  (711) 
nan

>  <Ligand Efficiency LLE>  (711) 
nan

>  <Ligand Efficiency SEI>  (711) 
nan

>  <ALogP>  (711) 
5.95

>  <Assay Organism>  (711) 
nan

>  <Assay Tissue ChEMBL ID>  (711) 
nan

>  <Assay Tissue Name>  (711) 
nan

>  <Assay Cell Type>  (711) 
nan

>  <Assay Subcellular Fraction>  (711) 
nan

>  <Organism Tax ID>  (711) 
9606

>  <BAO Format ID>  (711) 
BAO_0000019

>  <Published Type>  (711) 
nan

>  <Published Relation>  (711) 
nan

>  <Published Value>  (711) 
nan

>  <Published Units>  (711) 
nan

>  <Canonical Smiles>  (711) 
CN(CCC#N)C(=O)c1cccc(c1)n2nc(cc2NC(=O)Nc3cccc4ccccc34)C(C)(C)C

>  <Data Validity Comment>  (711) 
nan

>  <Document Journal>  (711) 
nan

>  <Document Year>  (711) 
nan

>  <SRC ID>  (711) 
7

>  <UO Units>  (711) 
UO_0000065

>  <Potential Duplicate>  (711) 
False

>  <Class>  (711) 
0

$$$$

     RDKit          2D

 23 25  0  0  0  0  0  0  0  0999 V2000
   -8.6583   -6.5105    0.0000 C   0  0  0  0  0  0  0  0  0  0  0  0
   -7.2317   -6.0469    0.0000 C   0  0  0  0  0  0  0  0  0  0  0  0
   -6.9199   -4.5797    0.0000 C   0  0  0  0  0  0  0  0  0  0  0  0
   -5.4933   -4.1162    0.0000 C   0  0  0  0  0  0  0  0  0  0  0  0
   -4.3786   -5.1199    0.0000 C   0  0  0  0  0  0  0  0  0  0  0  0
   -4.6904   -6.5871    0.0000 C   0  0  0  0  0  0  0  0  0  0  0  0
   -6.1170   -7.0506    0.0000 C   0  0  0  0  0  0  0  0  0  0  0  0
   -2.9520   -4.6564    0.0000 C   0  0  0  0  0  0  0  0  0  0  0  0
   -1.8373   -5.6601    0.0000 O   0  0  0  0  0  0  0  0  0  0  0  0
   -2.6401   -3.1891    0.0000 N   0  0  0  0  0  0  0  0  0  0  0  0
   -1.2135   -2.7256    0.0000 C   0  0  0  0  0  0  0  0  0  0  0  0
    0.0000   -3.6073    0.0000 C   0  0  0  0  0  0  0  0  0  0  0  0
    0.0000   -5.1073    0.0000 C   0  0  0  0  0  0  0  0  0  0  0  0
    0.0000   -6.6073    0.0000 N   0  0  0  0  0  0  0  0  0  0  0  0
    1.2135   -2.7256    0.0000 S   0  0  0  0  0  0  0  0  0  0  0  0
    0.7500   -1.2990    0.0000 C   0  0  0  0  0  0  0  0  0  0  0  0
    1.5000    0.0000    0.0000 C   0  0  0  0  0  0  0  0  0  0  0  0
    0.7500    1.2990    0.0000 C   0  0  0  0  0  0  0  0  0  0  0  0
   -0.7500    1.2990    0.0000 C   0  0  0  0  0  0  0  0  0  0  0  0
   -1.5000    2.5981    0.0000 Cl  0  0  0  0  0  0  0  0  0  0  0  0
   -1.5000    0.0000    0.0000 C   0  0  0  0  0  0  0  0  0  0  0  0
   -3.0000    0.0000    0.0000 Cl  0  0  0  0  0  0  0  0  0  0  0  0
   -0.7500   -1.2990    0.0000 C   0  0  0  0  0  0  0  0  0  0  0  0
  1  2  1  0
  2  3  2  0
  3  4  1  0
  4  5  2  0
  5  6  1  0
  6  7  2  0
  5  8  1  0
  8  9  2  0
  8 10  1  0
 10 11  1  0
 11 12  2  0
 12 13  1  0
 13 14  3  0
 12 15  1  0
 15 16  1  0
 16 17  2  0
 17 18  1  0
 18 19  2  0
 19 20  1  0
 19 21  1  0
 21 22  1  0
 21 23  2  0
  7  2  1  0
 23 11  1  0
 23 16  1  0
M  END
>  <Molecule>  (712) 
CHEMBL2006785

>  <Standard Type>  (712) 
Ki

>  <Standard Relation>  (712) 
>

>  <Standard Value>  (712) 
1584.89

>  <Standard Units>  (712) 
nM

>  <pChEMBL Value>  (712) 
nan

>  <Comment>  (712) 
inactive

>  <Compound Key>  (712) 
SID103904745

>  <Assay>  (712) 
CHEMBL1963742

>  <Assay Description>  (712) 
PUBCHEM_BIOASSAY: Navigating the Kinome. (Class of assay: other) Panel member name: JAK3

>  <BAO Format>  (712) 
assay format

>  <Target>  (712) 
CHEMBL2148

>  <Target Pref. Name>  (712) 
Tyrosine-protein kinase JAK3

>  <Target Organism>  (712) 
Homo sapiens

>  <Target Type>  (712) 
SINGLE PROTEIN

>  <Document>  (712) 
CHEMBL1201862

>  <Source>  (712) 
PubChem BioAssays

>  <Max Phase>  (712) 
0

>  <#Ro5 Violations>  (712) 
1

>  <Molecular Weight>  (712) 
361.25

>  <Ligand Efficiency BEI>  (712) 
nan

>  <Ligand Efficiency LE>  (712) 
nan

>  <Ligand Efficiency LLE>  (712) 
nan

>  <Ligand Efficiency SEI>  (712) 
nan

>  <ALogP>  (712) 
5.64

>  <Assay Organism>  (712) 
nan

>  <Assay Tissue ChEMBL ID>  (712) 
nan

>  <Assay Tissue Name>  (712) 
nan

>  <Assay Cell Type>  (712) 
nan

>  <Assay Subcellular Fraction>  (712) 
nan

>  <Organism Tax ID>  (712) 
9606

>  <BAO Format ID>  (712) 
BAO_0000019

>  <Published Type>  (712) 
nan

>  <Published Relation>  (712) 
nan

>  <Published Value>  (712) 
nan

>  <Published Units>  (712) 
nan

>  <Canonical Smiles>  (712) 
Cc1ccc(cc1)C(=O)Nc2c(C#N)sc3ccc(Cl)c(Cl)c23

>  <Data Validity Comment>  (712) 
nan

>  <Document Journal>  (712) 
nan

>  <Document Year>  (712) 
nan

>  <SRC ID>  (712) 
7

>  <UO Units>  (712) 
UO_0000065

>  <Potential Duplicate>  (712) 
False

>  <Class>  (712) 
0

$$$$

     RDKit          2D

 18 20  0  0  0  0  0  0  0  0999 V2000
   -5.7221   -1.8037    0.0000 O   0  0  0  0  0  0  0  0  0  0  0  0
   -4.4231   -2.5537    0.0000 C   0  0  0  0  0  0  0  0  0  0  0  0
   -4.4231   -4.0537    0.0000 O   0  0  0  0  0  0  0  0  0  0  0  0
   -3.1240   -1.8037    0.0000 C   0  0  0  0  0  0  0  0  0  0  0  0
   -1.7537   -2.4138    0.0000 C   0  0  0  0  0  0  0  0  0  0  0  0
   -0.7500   -1.2990    0.0000 C   0  0  0  0  0  0  0  0  0  0  0  0
    0.7500   -1.2990    0.0000 C   0  0  0  0  0  0  0  0  0  0  0  0
    1.5000    0.0000    0.0000 C   0  0  0  0  0  0  0  0  0  0  0  0
    0.7500    1.2990    0.0000 N   0  0  0  0  0  0  0  0  0  0  0  0
   -0.7500    1.2990    0.0000 C   0  0  0  0  0  0  0  0  0  0  0  0
   -1.5000    0.0000    0.0000 C   0  0  0  0  0  0  0  0  0  0  0  0
   -2.9672   -0.3119    0.0000 S   0  0  0  0  0  0  0  0  0  0  0  0
    1.5000   -2.5981    0.0000 C   0  0  0  0  0  0  0  0  0  0  0  0
    0.7500   -3.8971    0.0000 C   0  0  0  0  0  0  0  0  0  0  0  0
    1.5000   -5.1962    0.0000 C   0  0  0  0  0  0  0  0  0  0  0  0
    3.0000   -5.1962    0.0000 C   0  0  0  0  0  0  0  0  0  0  0  0
    3.7500   -3.8971    0.0000 C   0  0  0  0  0  0  0  0  0  0  0  0
    3.0000   -2.5981    0.0000 C   0  0  0  0  0  0  0  0  0  0  0  0
  1  2  1  0
  2  3  2  0
  2  4  1  0
  4  5  2  0
  5  6  1  0
  6  7  2  0
  7  8  1  0
  8  9  2  0
  9 10  1  0
 10 11  2  0
 11 12  1  0
  7 13  1  0
 13 14  2  0
 14 15  1  0
 15 16  2  0
 16 17  1  0
 17 18  2  0
 12  4  1  0
 11  6  1  0
 18 13  1  0
M  END
>  <Molecule>  (713) 
CHEMBL1996390

>  <Standard Type>  (713) 
Ki

>  <Standard Relation>  (713) 
>

>  <Standard Value>  (713) 
1584.89

>  <Standard Units>  (713) 
nM

>  <pChEMBL Value>  (713) 
nan

>  <Comment>  (713) 
inactive

>  <Compound Key>  (713) 
SID103905050

>  <Assay>  (713) 
CHEMBL1963742

>  <Assay Description>  (713) 
PUBCHEM_BIOASSAY: Navigating the Kinome. (Class of assay: other) Panel member name: JAK3

>  <BAO Format>  (713) 
assay format

>  <Target>  (713) 
CHEMBL2148

>  <Target Pref. Name>  (713) 
Tyrosine-protein kinase JAK3

>  <Target Organism>  (713) 
Homo sapiens

>  <Target Type>  (713) 
SINGLE PROTEIN

>  <Document>  (713) 
CHEMBL1201862

>  <Source>  (713) 
PubChem BioAssays

>  <Max Phase>  (713) 
0

>  <#Ro5 Violations>  (713) 
0

>  <Molecular Weight>  (713) 
255.3

>  <Ligand Efficiency BEI>  (713) 
nan

>  <Ligand Efficiency LE>  (713) 
nan

>  <Ligand Efficiency LLE>  (713) 
nan

>  <Ligand Efficiency SEI>  (713) 
nan

>  <ALogP>  (713) 
3.66

>  <Assay Organism>  (713) 
nan

>  <Assay Tissue ChEMBL ID>  (713) 
nan

>  <Assay Tissue Name>  (713) 
nan

>  <Assay Cell Type>  (713) 
nan

>  <Assay Subcellular Fraction>  (713) 
nan

>  <Organism Tax ID>  (713) 
9606

>  <BAO Format ID>  (713) 
BAO_0000019

>  <Published Type>  (713) 
nan

>  <Published Relation>  (713) 
nan

>  <Published Value>  (713) 
nan

>  <Published Units>  (713) 
nan

>  <Canonical Smiles>  (713) 
OC(=O)c1cc2c(cncc2s1)c3ccccc3

>  <Data Validity Comment>  (713) 
nan

>  <Document Journal>  (713) 
nan

>  <Document Year>  (713) 
nan

>  <SRC ID>  (713) 
7

>  <UO Units>  (713) 
UO_0000065

>  <Potential Duplicate>  (713) 
False

>  <Class>  (713) 
0

$$$$

     RDKit          2D

 27 30  0  0  0  0  0  0  0  0999 V2000
  -14.5438   -2.9592    0.0000 C   0  0  0  0  0  0  0  0  0  0  0  0
  -13.1172   -2.4957    0.0000 C   0  0  0  0  0  0  0  0  0  0  0  0
  -12.8053   -1.0285    0.0000 C   0  0  0  0  0  0  0  0  0  0  0  0
  -11.3787   -0.5649    0.0000 C   0  0  0  0  0  0  0  0  0  0  0  0
  -10.2640   -1.5686    0.0000 C   0  0  0  0  0  0  0  0  0  0  0  0
  -10.5759   -3.0359    0.0000 C   0  0  0  0  0  0  0  0  0  0  0  0
   -9.4612   -4.0396    0.0000 N   0  0  0  0  0  0  0  0  0  0  0  0
   -8.0346   -3.5760    0.0000 C   0  0  0  0  0  0  0  0  0  0  0  0
   -7.7227   -2.1088    0.0000 O   0  0  0  0  0  0  0  0  0  0  0  0
   -6.9199   -4.5797    0.0000 N   0  0  0  0  0  0  0  0  0  0  0  0
   -5.4933   -4.1162    0.0000 C   0  0  0  0  0  0  0  0  0  0  0  0
   -4.3786   -5.1199    0.0000 C   0  0  0  0  0  0  0  0  0  0  0  0
   -2.9520   -4.6564    0.0000 C   0  0  0  0  0  0  0  0  0  0  0  0
   -2.6401   -3.1891    0.0000 C   0  0  0  0  0  0  0  0  0  0  0  0
   -3.7548   -2.1855    0.0000 C   0  0  0  0  0  0  0  0  0  0  0  0
   -5.1814   -2.6490    0.0000 C   0  0  0  0  0  0  0  0  0  0  0  0
   -1.2135   -2.7256    0.0000 C   0  0  0  0  0  0  0  0  0  0  0  0
    0.0000   -3.6073    0.0000 C   0  0  0  0  0  0  0  0  0  0  0  0
    1.2135   -2.7256    0.0000 S   0  0  0  0  0  0  0  0  0  0  0  0
    0.7500   -1.2990    0.0000 C   0  0  0  0  0  0  0  0  0  0  0  0
    1.5000    0.0000    0.0000 N   0  0  0  0  0  0  0  0  0  0  0  0
    0.7500    1.2990    0.0000 C   0  0  0  0  0  0  0  0  0  0  0  0
   -0.7500    1.2990    0.0000 N   0  0  0  0  0  0  0  0  0  0  0  0
   -1.5000    0.0000    0.0000 C   0  0  0  0  0  0  0  0  0  0  0  0
   -3.0000    0.0000    0.0000 N   0  0  0  0  0  0  0  0  0  0  0  0
   -0.7500   -1.2990    0.0000 C   0  0  0  0  0  0  0  0  0  0  0  0
  -12.0025   -3.4994    0.0000 C   0  0  0  0  0  0  0  0  0  0  0  0
  1  2  1  0
  2  3  2  0
  3  4  1  0
  4  5  2  0
  5  6  1  0
  6  7  1  0
  7  8  1  0
  8  9  2  0
  8 10  1  0
 10 11  1  0
 11 12  2  0
 12 13  1  0
 13 14  2  0
 14 15  1  0
 15 16  2  0
 14 17  1  0
 17 18  2  0
 18 19  1  0
 19 20  1  0
 20 21  2  0
 21 22  1  0
 22 23  2  0
 23 24  1  0
 24 25  1  0
 24 26  2  0
  6 27  2  0
 27  2  1  0
 16 11  1  0
 26 17  1  0
 26 20  1  0
M  END
>  <Molecule>  (714) 
CHEMBL196363

>  <Standard Type>  (714) 
Ki

>  <Standard Relation>  (714) 
=

>  <Standard Value>  (714) 
630.96

>  <Standard Units>  (714) 
nM

>  <pChEMBL Value>  (714) 
6.2

>  <Comment>  (714) 
active

>  <Compound Key>  (714) 
SID103904276

>  <Assay>  (714) 
CHEMBL1963742

>  <Assay Description>  (714) 
PUBCHEM_BIOASSAY: Navigating the Kinome. (Class of assay: other) Panel member name: JAK3

>  <BAO Format>  (714) 
assay format

>  <Target>  (714) 
CHEMBL2148

>  <Target Pref. Name>  (714) 
Tyrosine-protein kinase JAK3

>  <Target Organism>  (714) 
Homo sapiens

>  <Target Type>  (714) 
SINGLE PROTEIN

>  <Document>  (714) 
CHEMBL1201862

>  <Source>  (714) 
PubChem BioAssays

>  <Max Phase>  (714) 
0

>  <#Ro5 Violations>  (714) 
0

>  <Molecular Weight>  (714) 
375.46

>  <Ligand Efficiency BEI>  (714) 
nan

>  <Ligand Efficiency LE>  (714) 
nan

>  <Ligand Efficiency LLE>  (714) 
nan

>  <Ligand Efficiency SEI>  (714) 
nan

>  <ALogP>  (714) 
4.89

>  <Assay Organism>  (714) 
nan

>  <Assay Tissue ChEMBL ID>  (714) 
nan

>  <Assay Tissue Name>  (714) 
nan

>  <Assay Cell Type>  (714) 
nan

>  <Assay Subcellular Fraction>  (714) 
nan

>  <Organism Tax ID>  (714) 
9606

>  <BAO Format ID>  (714) 
BAO_0000019

>  <Published Type>  (714) 
nan

>  <Published Relation>  (714) 
nan

>  <Published Value>  (714) 
nan

>  <Published Units>  (714) 
nan

>  <Canonical Smiles>  (714) 
Cc1cccc(NC(=O)Nc2ccc(cc2)c3csc4ncnc(N)c34)c1

>  <Data Validity Comment>  (714) 
nan

>  <Document Journal>  (714) 
nan

>  <Document Year>  (714) 
nan

>  <SRC ID>  (714) 
7

>  <UO Units>  (714) 
UO_0000065

>  <Potential Duplicate>  (714) 
False

>  <Class>  (714) 
1

$$$$

     RDKit          2D

 18 21  0  0  0  0  0  0  0  0999 V2000
    1.5000    0.0000    0.0000 C   0  0  0  0  0  0  0  0  0  0  0  0
    0.7500   -1.2990    0.0000 C   0  0  0  0  0  0  0  0  0  0  0  0
   -0.7500   -1.2990    0.0000 N   0  0  0  0  0  0  0  0  0  0  0  0
   -1.5000    0.0000    0.0000 C   0  0  0  0  0  0  0  0  0  0  0  0
   -2.9672    0.3119    0.0000 N   0  0  0  0  0  0  0  0  0  0  0  0
   -3.1240    1.8037    0.0000 C   0  0  0  0  0  0  0  0  0  0  0  0
   -1.7537    2.4138    0.0000 C   0  0  0  0  0  0  0  0  0  0  0  0
   -0.7500    1.2990    0.0000 N   0  0  0  0  0  0  0  0  0  0  0  0
    0.7500    1.2990    0.0000 C   0  0  0  0  0  0  0  0  0  0  0  0
   -4.4231    2.5537    0.0000 C   0  0  0  0  0  0  0  0  0  0  0  0
   -5.7221    1.8037    0.0000 C   0  0  0  0  0  0  0  0  0  0  0  0
   -7.0211    2.5537    0.0000 C   0  0  0  0  0  0  0  0  0  0  0  0
   -7.0211    4.0537    0.0000 C   0  0  0  0  0  0  0  0  0  0  0  0
   -8.1358    5.0573    0.0000 N   0  0  0  0  0  0  0  0  0  0  0  0
   -7.5257    6.4277    0.0000 N   0  0  0  0  0  0  0  0  0  0  0  0
   -6.0340    6.2709    0.0000 C   0  0  0  0  0  0  0  0  0  0  0  0
   -5.7221    4.8037    0.0000 C   0  0  0  0  0  0  0  0  0  0  0  0
   -4.4231    4.0537    0.0000 C   0  0  0  0  0  0  0  0  0  0  0  0
  1  2  1  0
  2  3  2  0
  3  4  1  0
  4  5  2  0
  5  6  1  0
  6  7  2  0
  7  8  1  0
  8  9  1  0
  6 10  1  0
 10 11  2  0
 11 12  1  0
 12 13  2  0
 13 14  1  0
 14 15  1  0
 15 16  2  0
 16 17  1  0
 17 18  2  0
  9  1  2  0
  8  4  1  0
 18 10  1  0
 17 13  1  0
M  END
>  <Molecule>  (715) 
CHEMBL1682540

>  <Standard Type>  (715) 
Ki

>  <Standard Relation>  (715) 
>

>  <Standard Value>  (715) 
1584.89

>  <Standard Units>  (715) 
nM

>  <pChEMBL Value>  (715) 
nan

>  <Comment>  (715) 
inactive

>  <Compound Key>  (715) 
SID103904528

>  <Assay>  (715) 
CHEMBL1963742

>  <Assay Description>  (715) 
PUBCHEM_BIOASSAY: Navigating the Kinome. (Class of assay: other) Panel member name: JAK3

>  <BAO Format>  (715) 
assay format

>  <Target>  (715) 
CHEMBL2148

>  <Target Pref. Name>  (715) 
Tyrosine-protein kinase JAK3

>  <Target Organism>  (715) 
Homo sapiens

>  <Target Type>  (715) 
SINGLE PROTEIN

>  <Document>  (715) 
CHEMBL1201862

>  <Source>  (715) 
PubChem BioAssays

>  <Max Phase>  (715) 
0

>  <#Ro5 Violations>  (715) 
0

>  <Molecular Weight>  (715) 
235.25

>  <Ligand Efficiency BEI>  (715) 
nan

>  <Ligand Efficiency LE>  (715) 
nan

>  <Ligand Efficiency LLE>  (715) 
nan

>  <Ligand Efficiency SEI>  (715) 
nan

>  <ALogP>  (715) 
2.27

>  <Assay Organism>  (715) 
nan

>  <Assay Tissue ChEMBL ID>  (715) 
nan

>  <Assay Tissue Name>  (715) 
nan

>  <Assay Cell Type>  (715) 
nan

>  <Assay Subcellular Fraction>  (715) 
nan

>  <Organism Tax ID>  (715) 
9606

>  <BAO Format ID>  (715) 
BAO_0000019

>  <Published Type>  (715) 
nan

>  <Published Relation>  (715) 
nan

>  <Published Value>  (715) 
nan

>  <Published Units>  (715) 
nan

>  <Canonical Smiles>  (715) 
c1cnc2nc(cn2c1)c3ccc4[nH]ncc4c3

>  <Data Validity Comment>  (715) 
nan

>  <Document Journal>  (715) 
nan

>  <Document Year>  (715) 
nan

>  <SRC ID>  (715) 
7

>  <UO Units>  (715) 
UO_0000065

>  <Potential Duplicate>  (715) 
False

>  <Class>  (715) 
0

$$$$

     RDKit          2D

 18 20  0  0  0  0  0  0  0  0999 V2000
    5.2500   -3.8971    0.0000 C   0  0  0  0  0  0  0  0  0  0  0  0
    3.7500   -3.8971    0.0000 C   0  0  0  0  0  0  0  0  0  0  0  0
    3.0000   -5.1962    0.0000 C   0  0  0  0  0  0  0  0  0  0  0  0
    1.5000   -5.1962    0.0000 C   0  0  0  0  0  0  0  0  0  0  0  0
    0.7500   -3.8971    0.0000 C   0  0  0  0  0  0  0  0  0  0  0  0
   -0.7500   -3.8971    0.0000 F   0  0  0  0  0  0  0  0  0  0  0  0
    1.5000   -2.5981    0.0000 C   0  0  0  0  0  0  0  0  0  0  0  0
    3.0000   -2.5981    0.0000 C   0  0  0  0  0  0  0  0  0  0  0  0
    0.7500   -1.2990    0.0000 C   0  0  0  0  0  0  0  0  0  0  0  0
    1.5000    0.0000    0.0000 C   0  0  0  0  0  0  0  0  0  0  0  0
    0.7500    1.2990    0.0000 C   0  0  0  0  0  0  0  0  0  0  0  0
   -0.7500    1.2990    0.0000 C   0  0  0  0  0  0  0  0  0  0  0  0
   -1.7537    2.4138    0.0000 N   0  0  0  0  0  0  0  0  0  0  0  0
   -3.1240    1.8037    0.0000 N   0  0  0  0  0  0  0  0  0  0  0  0
   -2.9672    0.3119    0.0000 C   0  0  0  0  0  0  0  0  0  0  0  0
   -4.0819   -0.6918    0.0000 N   0  0  0  0  0  0  0  0  0  0  0  0
   -1.5000    0.0000    0.0000 N   0  0  0  0  0  0  0  0  0  0  0  0
   -0.7500   -1.2990    0.0000 C   0  0  0  0  0  0  0  0  0  0  0  0
  1  2  1  0
  2  3  2  0
  3  4  1  0
  4  5  2  0
  5  6  1  0
  5  7  1  0
  7  8  2  0
  7  9  1  0
  9 10  1  0
 10 11  2  0
 11 12  1  0
 12 13  2  0
 13 14  1  0
 14 15  2  0
 15 16  1  0
 15 17  1  0
 17 18  1  0
  8  2  1  0
 18  9  2  0
 17 12  1  0
M  END
>  <Molecule>  (716) 
CHEMBL2002323

>  <Standard Type>  (716) 
Ki

>  <Standard Relation>  (716) 
>

>  <Standard Value>  (716) 
1584.89

>  <Standard Units>  (716) 
nM

>  <pChEMBL Value>  (716) 
nan

>  <Comment>  (716) 
inactive

>  <Compound Key>  (716) 
SID103905202

>  <Assay>  (716) 
CHEMBL1963742

>  <Assay Description>  (716) 
PUBCHEM_BIOASSAY: Navigating the Kinome. (Class of assay: other) Panel member name: JAK3

>  <BAO Format>  (716) 
assay format

>  <Target>  (716) 
CHEMBL2148

>  <Target Pref. Name>  (716) 
Tyrosine-protein kinase JAK3

>  <Target Organism>  (716) 
Homo sapiens

>  <Target Type>  (716) 
SINGLE PROTEIN

>  <Document>  (716) 
CHEMBL1201862

>  <Source>  (716) 
PubChem BioAssays

>  <Max Phase>  (716) 
0

>  <#Ro5 Violations>  (716) 
0

>  <Molecular Weight>  (716) 
242.26

>  <Ligand Efficiency BEI>  (716) 
nan

>  <Ligand Efficiency LE>  (716) 
nan

>  <Ligand Efficiency LLE>  (716) 
nan

>  <Ligand Efficiency SEI>  (716) 
nan

>  <ALogP>  (716) 
2.43

>  <Assay Organism>  (716) 
nan

>  <Assay Tissue ChEMBL ID>  (716) 
nan

>  <Assay Tissue Name>  (716) 
nan

>  <Assay Cell Type>  (716) 
nan

>  <Assay Subcellular Fraction>  (716) 
nan

>  <Organism Tax ID>  (716) 
9606

>  <BAO Format ID>  (716) 
BAO_0000019

>  <Published Type>  (716) 
nan

>  <Published Relation>  (716) 
nan

>  <Published Value>  (716) 
nan

>  <Published Units>  (716) 
nan

>  <Canonical Smiles>  (716) 
Cc1ccc(F)c(c1)c2ccc3nnc(N)n3c2

>  <Data Validity Comment>  (716) 
nan

>  <Document Journal>  (716) 
nan

>  <Document Year>  (716) 
nan

>  <SRC ID>  (716) 
7

>  <UO Units>  (716) 
UO_0000065

>  <Potential Duplicate>  (716) 
False

>  <Class>  (716) 
0

$$$$

     RDKit          2D

 33 38  0  0  0  0  0  0  0  0999 V2000
  -14.2500   -6.4952    0.0000 F   0  0  0  0  0  0  0  0  0  0  0  0
  -12.7500   -6.4952    0.0000 C   0  0  0  0  0  0  0  0  0  0  0  0
  -12.0000   -5.1962    0.0000 C   0  0  0  0  0  0  0  0  0  0  0  0
  -10.5000   -5.1962    0.0000 C   0  0  0  0  0  0  0  0  0  0  0  0
   -9.7500   -6.4952    0.0000 C   0  0  0  0  0  0  0  0  0  0  0  0
  -10.5000   -7.7942    0.0000 C   0  0  0  0  0  0  0  0  0  0  0  0
  -12.0000   -7.7942    0.0000 C   0  0  0  0  0  0  0  0  0  0  0  0
   -8.2500   -6.4952    0.0000 C   0  0  0  0  0  0  0  0  0  0  0  0
   -7.5000   -5.1962    0.0000 O   0  0  0  0  0  0  0  0  0  0  0  0
   -7.5000   -7.7942    0.0000 N   0  0  0  0  0  0  0  0  0  0  0  0
   -6.0000   -7.7942    0.0000 C   0  0  0  0  0  0  0  0  0  0  0  0
   -5.2500   -9.0933    0.0000 C   0  0  0  0  0  0  0  0  0  0  0  0
   -3.7500   -9.0933    0.0000 C   0  0  0  0  0  0  0  0  0  0  0  0
   -3.0000   -7.7942    0.0000 C   0  0  0  0  0  0  0  0  0  0  0  0
   -3.7500   -6.4952    0.0000 C   0  0  0  0  0  0  0  0  0  0  0  0
   -5.2500   -6.4952    0.0000 C   0  0  0  0  0  0  0  0  0  0  0  0
   -3.0000   -5.1962    0.0000 C   0  0  0  0  0  0  0  0  0  0  0  0
   -1.5000   -5.1962    0.0000 N   0  0  0  0  0  0  0  0  0  0  0  0
   -0.7500   -3.8971    0.0000 C   0  0  0  0  0  0  0  0  0  0  0  0
    0.7500   -3.8971    0.0000 C   0  0  0  0  0  0  0  0  0  0  0  0
    1.5000   -2.5981    0.0000 C   0  0  0  0  0  0  0  0  0  0  0  0
    0.7500   -1.2990    0.0000 C   0  0  0  0  0  0  0  0  0  0  0  0
    1.5000    0.0000    0.0000 C   0  0  0  0  0  0  0  0  0  0  0  0
    0.7500    1.2990    0.0000 C   0  0  0  0  0  0  0  0  0  0  0  0
   -0.7500    1.2990    0.0000 C   0  0  0  0  0  0  0  0  0  0  0  0
   -1.5000    0.0000    0.0000 C   0  0  0  0  0  0  0  0  0  0  0  0
   -0.7500   -1.2990    0.0000 C   0  0  0  0  0  0  0  0  0  0  0  0
   -1.5000   -2.5981    0.0000 C   0  0  0  0  0  0  0  0  0  0  0  0
   -3.0000   -2.5981    0.0000 C   0  0  0  0  0  0  0  0  0  0  0  0
   -4.0037   -1.4834    0.0000 C   0  0  0  0  0  0  0  0  0  0  0  0
   -5.3740   -2.0935    0.0000 C   0  0  0  0  0  0  0  0  0  0  0  0
   -5.2172   -3.5852    0.0000 C   0  0  0  0  0  0  0  0  0  0  0  0
   -3.7500   -3.8971    0.0000 C   0  0  0  0  0  0  0  0  0  0  0  0
  1  2  1  0
  2  3  2  0
  3  4  1  0
  4  5  2  0
  5  6  1  0
  6  7  2  0
  5  8  1  0
  8  9  2  0
  8 10  1  0
 10 11  1  0
 11 12  2  0
 12 13  1  0
 13 14  2  0
 14 15  1  0
 15 16  2  0
 15 17  1  0
 17 18  1  0
 18 19  1  0
 19 20  2  0
 20 21  1  0
 21 22  2  0
 22 23  1  0
 23 24  2  0
 24 25  1  0
 25 26  2  0
 26 27  1  0
 27 28  2  0
 28 29  1  0
 29 30  1  0
 30 31  2  0
 31 32  1  0
 32 33  1  0
  7  2  1  0
 16 11  1  0
 33 17  1  0
 28 19  1  0
 27 22  1  0
 33 29  1  0
M  END
>  <Molecule>  (717) 
CHEMBL1992042

>  <Standard Type>  (717) 
Ki

>  <Standard Relation>  (717) 
>

>  <Standard Value>  (717) 
5011.87

>  <Standard Units>  (717) 
nM

>  <pChEMBL Value>  (717) 
nan

>  <Comment>  (717) 
inactive

>  <Compound Key>  (717) 
SID103904740

>  <Assay>  (717) 
CHEMBL1963742

>  <Assay Description>  (717) 
PUBCHEM_BIOASSAY: Navigating the Kinome. (Class of assay: other) Panel member name: JAK3

>  <BAO Format>  (717) 
assay format

>  <Target>  (717) 
CHEMBL2148

>  <Target Pref. Name>  (717) 
Tyrosine-protein kinase JAK3

>  <Target Organism>  (717) 
Homo sapiens

>  <Target Type>  (717) 
SINGLE PROTEIN

>  <Document>  (717) 
CHEMBL1201862

>  <Source>  (717) 
PubChem BioAssays

>  <Max Phase>  (717) 
0

>  <#Ro5 Violations>  (717) 
1

>  <Molecular Weight>  (717) 
434.51

>  <Ligand Efficiency BEI>  (717) 
nan

>  <Ligand Efficiency LE>  (717) 
nan

>  <Ligand Efficiency LLE>  (717) 
nan

>  <Ligand Efficiency SEI>  (717) 
nan

>  <ALogP>  (717) 
7.06

>  <Assay Organism>  (717) 
nan

>  <Assay Tissue ChEMBL ID>  (717) 
nan

>  <Assay Tissue Name>  (717) 
nan

>  <Assay Cell Type>  (717) 
nan

>  <Assay Subcellular Fraction>  (717) 
nan

>  <Organism Tax ID>  (717) 
9606

>  <BAO Format ID>  (717) 
BAO_0000019

>  <Published Type>  (717) 
nan

>  <Published Relation>  (717) 
nan

>  <Published Value>  (717) 
nan

>  <Published Units>  (717) 
nan

>  <Canonical Smiles>  (717) 
Fc1ccc(cc1)C(=O)Nc2cccc(c2)C3Nc4ccc5ccccc5c4C6C=CCC36

>  <Data Validity Comment>  (717) 
nan

>  <Document Journal>  (717) 
nan

>  <Document Year>  (717) 
nan

>  <SRC ID>  (717) 
7

>  <UO Units>  (717) 
UO_0000065

>  <Potential Duplicate>  (717) 
False

>  <Class>  (717) 
0

$$$$

     RDKit          2D

 28 30  0  0  0  0  0  0  0  0999 V2000
    1.9919   -8.6168    0.0000 C   0  0  0  0  0  0  0  0  0  0  0  0
    3.4591   -8.3049    0.0000 O   0  0  0  0  0  0  0  0  0  0  0  0
    3.9227   -6.8783    0.0000 C   0  0  0  0  0  0  0  0  0  0  0  0
    5.3899   -6.5665    0.0000 C   0  0  0  0  0  0  0  0  0  0  0  0
    6.5046   -7.5702    0.0000 N   0  0  0  0  0  0  0  0  0  0  0  0
    7.8037   -6.8202    0.0000 N   0  0  0  0  0  0  0  0  0  0  0  0
    7.4918   -5.3529    0.0000 N   0  0  0  0  0  0  0  0  0  0  0  0
    6.0000   -5.1962    0.0000 C   0  0  0  0  0  0  0  0  0  0  0  0
    5.2500   -3.8971    0.0000 C   0  0  0  0  0  0  0  0  0  0  0  0
    6.0000   -2.5981    0.0000 O   0  0  0  0  0  0  0  0  0  0  0  0
    3.7500   -3.8971    0.0000 N   0  0  0  0  0  0  0  0  0  0  0  0
    3.0000   -2.5981    0.0000 N   0  0  0  0  0  0  0  0  0  0  0  0
    1.5000   -2.5981    0.0000 C   0  0  0  0  0  0  0  0  0  0  0  0
    0.7500   -3.8971    0.0000 C   0  0  0  0  0  0  0  0  0  0  0  0
    0.7500   -1.2990    0.0000 C   0  0  0  0  0  0  0  0  0  0  0  0
    1.5000    0.0000    0.0000 C   0  0  0  0  0  0  0  0  0  0  0  0
    0.7500    1.2990    0.0000 C   0  0  0  0  0  0  0  0  0  0  0  0
   -0.7500    1.2990    0.0000 C   0  0  0  0  0  0  0  0  0  0  0  0
   -1.5000    2.5981    0.0000 O   0  0  0  0  0  0  0  0  0  0  0  0
   -1.5000    0.0000    0.0000 C   0  0  0  0  0  0  0  0  0  0  0  0
   -0.7500   -1.2990    0.0000 C   0  0  0  0  0  0  0  0  0  0  0  0
   -1.5000   -2.5981    0.0000 O   0  0  0  0  0  0  0  0  0  0  0  0
    8.4955   -4.2382    0.0000 C   0  0  0  0  0  0  0  0  0  0  0  0
    8.1836   -2.7710    0.0000 N   0  0  0  0  0  0  0  0  0  0  0  0
    9.4826   -2.0210    0.0000 O   0  0  0  0  0  0  0  0  0  0  0  0
   10.5974   -3.0247    0.0000 N   0  0  0  0  0  0  0  0  0  0  0  0
    9.9873   -4.3950    0.0000 C   0  0  0  0  0  0  0  0  0  0  0  0
   10.7373   -5.6941    0.0000 N   0  0  0  0  0  0  0  0  0  0  0  0
  1  2  1  0
  2  3  1  0
  3  4  1  0
  4  5  1  0
  5  6  2  0
  6  7  1  0
  7  8  1  0
  8  9  1  0
  9 10  2  0
  9 11  1  0
 11 12  1  0
 12 13  2  3
 13 14  1  0
 13 15  1  0
 15 16  2  0
 16 17  1  0
 17 18  2  0
 18 19  1  0
 18 20  1  0
 20 21  2  0
 21 22  1  0
  7 23  1  0
 23 24  2  0
 24 25  1  0
 25 26  1  0
 26 27  2  0
 27 28  1  0
  8  4  2  0
 21 15  1  0
 27 23  1  0
M  END
>  <Molecule>  (718) 
CHEMBL1991180

>  <Standard Type>  (718) 
Ki

>  <Standard Relation>  (718) 
=

>  <Standard Value>  (718) 
794.33

>  <Standard Units>  (718) 
nM

>  <pChEMBL Value>  (718) 
6.1

>  <Comment>  (718) 
active

>  <Compound Key>  (718) 
SID103905665

>  <Assay>  (718) 
CHEMBL1963742

>  <Assay Description>  (718) 
PUBCHEM_BIOASSAY: Navigating the Kinome. (Class of assay: other) Panel member name: JAK3

>  <BAO Format>  (718) 
assay format

>  <Target>  (718) 
CHEMBL2148

>  <Target Pref. Name>  (718) 
Tyrosine-protein kinase JAK3

>  <Target Organism>  (718) 
Homo sapiens

>  <Target Type>  (718) 
SINGLE PROTEIN

>  <Document>  (718) 
CHEMBL1201862

>  <Source>  (718) 
PubChem BioAssays

>  <Max Phase>  (718) 
0

>  <#Ro5 Violations>  (718) 
1

>  <Molecular Weight>  (718) 
388.34

>  <Ligand Efficiency BEI>  (718) 
nan

>  <Ligand Efficiency LE>  (718) 
nan

>  <Ligand Efficiency LLE>  (718) 
nan

>  <Ligand Efficiency SEI>  (718) 
nan

>  <ALogP>  (718) 
-0.06

>  <Assay Organism>  (718) 
nan

>  <Assay Tissue ChEMBL ID>  (718) 
nan

>  <Assay Tissue Name>  (718) 
nan

>  <Assay Cell Type>  (718) 
nan

>  <Assay Subcellular Fraction>  (718) 
nan

>  <Organism Tax ID>  (718) 
9606

>  <BAO Format ID>  (718) 
BAO_0000019

>  <Published Type>  (718) 
nan

>  <Published Relation>  (718) 
nan

>  <Published Value>  (718) 
nan

>  <Published Units>  (718) 
nan

>  <Canonical Smiles>  (718) 
COCc1nnn(c1C(=O)NN=C(C)c2ccc(O)cc2O)c3nonc3N

>  <Data Validity Comment>  (718) 
nan

>  <Document Journal>  (718) 
nan

>  <Document Year>  (718) 
nan

>  <SRC ID>  (718) 
7

>  <UO Units>  (718) 
UO_0000065

>  <Potential Duplicate>  (718) 
False

>  <Class>  (718) 
1

$$$$

     RDKit          2D

 35 38  0  0  0  0  0  0  0  0999 V2000
   -7.8396   -9.2187    0.0000 C   0  0  0  0  0  0  0  0  0  0  0  0
   -6.3478   -9.0619    0.0000 C   0  0  0  0  0  0  0  0  0  0  0  0
   -4.8560   -8.9052    0.0000 C   0  0  0  0  0  0  0  0  0  0  0  0
   -6.1910  -10.5537    0.0000 C   0  0  0  0  0  0  0  0  0  0  0  0
   -6.5046   -7.5702    0.0000 C   0  0  0  0  0  0  0  0  0  0  0  0
   -5.3899   -6.5665    0.0000 C   0  0  0  0  0  0  0  0  0  0  0  0
   -6.0000   -5.1962    0.0000 C   0  0  0  0  0  0  0  0  0  0  0  0
   -5.2500   -3.8971    0.0000 N   0  0  0  0  0  0  0  0  0  0  0  0
   -3.7500   -3.8971    0.0000 C   0  0  0  0  0  0  0  0  0  0  0  0
   -3.0000   -5.1962    0.0000 O   0  0  0  0  0  0  0  0  0  0  0  0
   -3.0000   -2.5981    0.0000 C   0  0  0  0  0  0  0  0  0  0  0  0
   -3.7500   -1.2990    0.0000 O   0  0  0  0  0  0  0  0  0  0  0  0
   -1.5000   -2.5981    0.0000 C   0  0  0  0  0  0  0  0  0  0  0  0
   -0.7500   -3.8971    0.0000 C   0  0  0  0  0  0  0  0  0  0  0  0
    0.7500   -3.8971    0.0000 C   0  0  0  0  0  0  0  0  0  0  0  0
    1.5000   -2.5981    0.0000 C   0  0  0  0  0  0  0  0  0  0  0  0
    0.7500   -1.2990    0.0000 C   0  0  0  0  0  0  0  0  0  0  0  0
    1.5000    0.0000    0.0000 C   0  0  0  0  0  0  0  0  0  0  0  0
    0.7500    1.2990    0.0000 C   0  0  0  0  0  0  0  0  0  0  0  0
   -0.7500    1.2990    0.0000 C   0  0  0  0  0  0  0  0  0  0  0  0
   -1.5000    0.0000    0.0000 C   0  0  0  0  0  0  0  0  0  0  0  0
   -0.7500   -1.2990    0.0000 C   0  0  0  0  0  0  0  0  0  0  0  0
   -7.4918   -5.3529    0.0000 N   0  0  0  0  0  0  0  0  0  0  0  0
   -7.8037   -6.8202    0.0000 N   0  0  0  0  0  0  0  0  0  0  0  0
   -8.4955   -4.2382    0.0000 C   0  0  0  0  0  0  0  0  0  0  0  0
   -8.0320   -2.8116    0.0000 C   0  0  0  0  0  0  0  0  0  0  0  0
   -9.0356   -1.6969    0.0000 C   0  0  0  0  0  0  0  0  0  0  0  0
  -10.5029   -2.0088    0.0000 C   0  0  0  0  0  0  0  0  0  0  0  0
  -10.9664   -3.4354    0.0000 C   0  0  0  0  0  0  0  0  0  0  0  0
  -12.4336   -3.7472    0.0000 O   0  0  0  0  0  0  0  0  0  0  0  0
  -13.4373   -2.6325    0.0000 C   0  0  0  0  0  0  0  0  0  0  0  0
  -14.9045   -2.9444    0.0000 C   0  0  0  0  0  0  0  0  0  0  0  0
  -15.3681   -4.3710    0.0000 O   0  0  0  0  0  0  0  0  0  0  0  0
  -15.9082   -1.8297    0.0000 O   0  0  0  0  0  0  0  0  0  0  0  0
   -9.9627   -4.5501    0.0000 C   0  0  0  0  0  0  0  0  0  0  0  0
  1  2  1  0
  2  3  1  0
  2  4  1  0
  2  5  1  0
  5  6  1  0
  6  7  2  0
  7  8  1  0
  8  9  1  0
  9 10  2  0
  9 11  1  0
 11 12  2  0
 11 13  1  0
 13 14  2  0
 14 15  1  0
 15 16  2  0
 16 17  1  0
 17 18  2  0
 18 19  1  0
 19 20  2  0
 20 21  1  0
 21 22  2  0
  7 23  1  0
 23 24  1  0
 23 25  1  0
 25 26  2  0
 26 27  1  0
 27 28  2  0
 28 29  1  0
 29 30  1  0
 30 31  1  0
 31 32  1  0
 32 33  2  0
 32 34  1  0
 29 35  2  0
 24  5  2  0
 22 13  1  0
 22 17  1  0
 35 25  1  0
M  END
>  <Molecule>  (719) 
CHEMBL1964902

>  <Standard Type>  (719) 
Ki

>  <Standard Relation>  (719) 
>

>  <Standard Value>  (719) 
5011.87

>  <Standard Units>  (719) 
nM

>  <pChEMBL Value>  (719) 
nan

>  <Comment>  (719) 
inactive

>  <Compound Key>  (719) 
SID103904843

>  <Assay>  (719) 
CHEMBL1963742

>  <Assay Description>  (719) 
PUBCHEM_BIOASSAY: Navigating the Kinome. (Class of assay: other) Panel member name: JAK3

>  <BAO Format>  (719) 
assay format

>  <Target>  (719) 
CHEMBL2148

>  <Target Pref. Name>  (719) 
Tyrosine-protein kinase JAK3

>  <Target Organism>  (719) 
Homo sapiens

>  <Target Type>  (719) 
SINGLE PROTEIN

>  <Document>  (719) 
CHEMBL1201862

>  <Source>  (719) 
PubChem BioAssays

>  <Max Phase>  (719) 
0

>  <#Ro5 Violations>  (719) 
0

>  <Molecular Weight>  (719) 
471.51

>  <Ligand Efficiency BEI>  (719) 
nan

>  <Ligand Efficiency LE>  (719) 
nan

>  <Ligand Efficiency LLE>  (719) 
nan

>  <Ligand Efficiency SEI>  (719) 
nan

>  <ALogP>  (719) 
4.61

>  <Assay Organism>  (719) 
nan

>  <Assay Tissue ChEMBL ID>  (719) 
nan

>  <Assay Tissue Name>  (719) 
nan

>  <Assay Cell Type>  (719) 
nan

>  <Assay Subcellular Fraction>  (719) 
nan

>  <Organism Tax ID>  (719) 
9606

>  <BAO Format ID>  (719) 
BAO_0000019

>  <Published Type>  (719) 
nan

>  <Published Relation>  (719) 
nan

>  <Published Value>  (719) 
nan

>  <Published Units>  (719) 
nan

>  <Canonical Smiles>  (719) 
CC(C)(C)c1cc(NC(=O)C(=O)c2cccc3ccccc23)n(n1)c4cccc(OCC(=O)O)c4

>  <Data Validity Comment>  (719) 
nan

>  <Document Journal>  (719) 
nan

>  <Document Year>  (719) 
nan

>  <SRC ID>  (719) 
7

>  <UO Units>  (719) 
UO_0000065

>  <Potential Duplicate>  (719) 
False

>  <Class>  (719) 
0

$$$$

     RDKit          2D

 25 28  0  0  0  0  0  0  0  0999 V2000
    8.6575    5.6260    0.0000 Cl  0  0  0  0  0  0  0  0  0  0  0  0
    7.1902    5.3142    0.0000 C   0  0  0  0  0  0  0  0  0  0  0  0
    6.7267    3.8876    0.0000 C   0  0  0  0  0  0  0  0  0  0  0  0
    5.2595    3.5757    0.0000 C   0  0  0  0  0  0  0  0  0  0  0  0
    4.2558    4.6904    0.0000 C   0  0  0  0  0  0  0  0  0  0  0  0
    2.7886    4.3786    0.0000 C   0  0  0  0  0  0  0  0  0  0  0  0
    2.3250    2.9520    0.0000 N   0  0  0  0  0  0  0  0  0  0  0  0
    0.8578    2.6401    0.0000 C   0  0  0  0  0  0  0  0  0  0  0  0
   -0.1459    3.7548    0.0000 O   0  0  0  0  0  0  0  0  0  0  0  0
    0.3943    1.2135    0.0000 C   0  0  0  0  0  0  0  0  0  0  0  0
    1.2760    0.0000    0.0000 C   0  0  0  0  0  0  0  0  0  0  0  0
    0.3943   -1.2135    0.0000 C   0  0  0  0  0  0  0  0  0  0  0  0
    0.3943   -2.7135    0.0000 C   0  0  0  0  0  0  0  0  0  0  0  0
   -1.0323   -3.1771    0.0000 N   0  0  0  0  0  0  0  0  0  0  0  0
   -1.9140   -1.9635    0.0000 N   0  0  0  0  0  0  0  0  0  0  0  0
   -1.0323   -0.7500    0.0000 C   0  0  0  0  0  0  0  0  0  0  0  0
   -1.0323    0.7500    0.0000 S   0  0  0  0  0  0  0  0  0  0  0  0
    1.6078   -3.5952    0.0000 C   0  0  0  0  0  0  0  0  0  0  0  0
    1.4510   -5.0870    0.0000 C   0  0  0  0  0  0  0  0  0  0  0  0
    2.6646   -5.9687    0.0000 C   0  0  0  0  0  0  0  0  0  0  0  0
    4.0349   -5.3586    0.0000 C   0  0  0  0  0  0  0  0  0  0  0  0
    4.1917   -3.8668    0.0000 C   0  0  0  0  0  0  0  0  0  0  0  0
    2.9781   -2.9851    0.0000 C   0  0  0  0  0  0  0  0  0  0  0  0
    4.7193    6.1170    0.0000 C   0  0  0  0  0  0  0  0  0  0  0  0
    6.1865    6.4289    0.0000 C   0  0  0  0  0  0  0  0  0  0  0  0
  1  2  1  0
  2  3  2  0
  3  4  1  0
  4  5  2  0
  5  6  1  0
  6  7  1  0
  7  8  1  0
  8  9  2  0
  8 10  1  0
 10 11  2  0
 11 12  1  0
 12 13  1  0
 13 14  2  0
 14 15  1  0
 15 16  1  0
 16 17  1  0
 13 18  1  0
 18 19  2  0
 19 20  1  0
 20 21  2  0
 21 22  1  0
 22 23  2  0
  5 24  1  0
 24 25  2  0
 25  2  1  0
 17 10  1  0
 16 12  2  0
 23 18  1  0
M  END
>  <Molecule>  (720) 
CHEMBL1967094

>  <Standard Type>  (720) 
Ki

>  <Standard Relation>  (720) 
>

>  <Standard Value>  (720) 
1584.89

>  <Standard Units>  (720) 
nM

>  <pChEMBL Value>  (720) 
nan

>  <Comment>  (720) 
inactive

>  <Compound Key>  (720) 
SID103904999

>  <Assay>  (720) 
CHEMBL1963742

>  <Assay Description>  (720) 
PUBCHEM_BIOASSAY: Navigating the Kinome. (Class of assay: other) Panel member name: JAK3

>  <BAO Format>  (720) 
assay format

>  <Target>  (720) 
CHEMBL2148

>  <Target Pref. Name>  (720) 
Tyrosine-protein kinase JAK3

>  <Target Organism>  (720) 
Homo sapiens

>  <Target Type>  (720) 
SINGLE PROTEIN

>  <Document>  (720) 
CHEMBL1201862

>  <Source>  (720) 
PubChem BioAssays

>  <Max Phase>  (720) 
0

>  <#Ro5 Violations>  (720) 
0

>  <Molecular Weight>  (720) 
367.86

>  <Ligand Efficiency BEI>  (720) 
nan

>  <Ligand Efficiency LE>  (720) 
nan

>  <Ligand Efficiency LLE>  (720) 
nan

>  <Ligand Efficiency SEI>  (720) 
nan

>  <ALogP>  (720) 
4.87

>  <Assay Organism>  (720) 
nan

>  <Assay Tissue ChEMBL ID>  (720) 
nan

>  <Assay Tissue Name>  (720) 
nan

>  <Assay Cell Type>  (720) 
nan

>  <Assay Subcellular Fraction>  (720) 
nan

>  <Organism Tax ID>  (720) 
9606

>  <BAO Format ID>  (720) 
BAO_0000019

>  <Published Type>  (720) 
nan

>  <Published Relation>  (720) 
nan

>  <Published Value>  (720) 
nan

>  <Published Units>  (720) 
nan

>  <Canonical Smiles>  (720) 
Clc1ccc(CNC(=O)c2cc3c(n[nH]c3s2)c4ccccc4)cc1

>  <Data Validity Comment>  (720) 
nan

>  <Document Journal>  (720) 
nan

>  <Document Year>  (720) 
nan

>  <SRC ID>  (720) 
7

>  <UO Units>  (720) 
UO_0000065

>  <Potential Duplicate>  (720) 
False

>  <Class>  (720) 
0

$$$$

     RDKit          2D

 19 21  0  0  0  0  0  0  0  0999 V2000
    3.7500   -1.2990    0.0000 C   0  0  0  0  0  0  0  0  0  0  0  0
    3.0000    0.0000    0.0000 O   0  0  0  0  0  0  0  0  0  0  0  0
    1.5000    0.0000    0.0000 C   0  0  0  0  0  0  0  0  0  0  0  0
    0.7500   -1.2990    0.0000 C   0  0  0  0  0  0  0  0  0  0  0  0
   -0.7500   -1.2990    0.0000 C   0  0  0  0  0  0  0  0  0  0  0  0
   -1.5000   -2.5981    0.0000 C   0  0  0  0  0  0  0  0  0  0  0  0
   -3.0000   -2.5981    0.0000 N   0  0  0  0  0  0  0  0  0  0  0  0
   -3.7500   -1.2990    0.0000 C   0  0  0  0  0  0  0  0  0  0  0  0
   -5.2172   -0.9872    0.0000 C   0  0  0  0  0  0  0  0  0  0  0  0
   -6.3319   -1.9909    0.0000 O   0  0  0  0  0  0  0  0  0  0  0  0
   -5.3740    0.5046    0.0000 N   0  0  0  0  0  0  0  0  0  0  0  0
   -4.0037    1.1147    0.0000 C   0  0  0  0  0  0  0  0  0  0  0  0
   -3.6918    2.5819    0.0000 O   0  0  0  0  0  0  0  0  0  0  0  0
   -3.0000    0.0000    0.0000 C   0  0  0  0  0  0  0  0  0  0  0  0
   -1.5000    0.0000    0.0000 C   0  0  0  0  0  0  0  0  0  0  0  0
   -0.7500    1.2990    0.0000 C   0  0  0  0  0  0  0  0  0  0  0  0
    0.7500    1.2990    0.0000 C   0  0  0  0  0  0  0  0  0  0  0  0
    1.5000    2.5981    0.0000 O   0  0  0  0  0  0  0  0  0  0  0  0
    3.0000    2.5981    0.0000 C   0  0  0  0  0  0  0  0  0  0  0  0
  1  2  1  0
  2  3  1  0
  3  4  2  0
  4  5  1  0
  5  6  2  0
  6  7  1  0
  7  8  2  0
  8  9  1  0
  9 10  2  0
  9 11  1  0
 11 12  1  0
 12 13  2  0
 12 14  1  0
 14 15  2  0
 15 16  1  0
 16 17  2  0
 17 18  1  0
 18 19  1  0
 17  3  1  0
 15  5  1  0
 14  8  1  0
M  END
>  <Molecule>  (721) 
CHEMBL1982506

>  <Standard Type>  (721) 
Ki

>  <Standard Relation>  (721) 
>

>  <Standard Value>  (721) 
1584.89

>  <Standard Units>  (721) 
nM

>  <pChEMBL Value>  (721) 
nan

>  <Comment>  (721) 
inactive

>  <Compound Key>  (721) 
SID103905550

>  <Assay>  (721) 
CHEMBL1963742

>  <Assay Description>  (721) 
PUBCHEM_BIOASSAY: Navigating the Kinome. (Class of assay: other) Panel member name: JAK3

>  <BAO Format>  (721) 
assay format

>  <Target>  (721) 
CHEMBL2148

>  <Target Pref. Name>  (721) 
Tyrosine-protein kinase JAK3

>  <Target Organism>  (721) 
Homo sapiens

>  <Target Type>  (721) 
SINGLE PROTEIN

>  <Document>  (721) 
CHEMBL1201862

>  <Source>  (721) 
PubChem BioAssays

>  <Max Phase>  (721) 
0

>  <#Ro5 Violations>  (721) 
0

>  <Molecular Weight>  (721) 
258.23

>  <Ligand Efficiency BEI>  (721) 
nan

>  <Ligand Efficiency LE>  (721) 
nan

>  <Ligand Efficiency LLE>  (721) 
nan

>  <Ligand Efficiency SEI>  (721) 
nan

>  <ALogP>  (721) 
1.14

>  <Assay Organism>  (721) 
nan

>  <Assay Tissue ChEMBL ID>  (721) 
nan

>  <Assay Tissue Name>  (721) 
nan

>  <Assay Cell Type>  (721) 
nan

>  <Assay Subcellular Fraction>  (721) 
nan

>  <Organism Tax ID>  (721) 
9606

>  <BAO Format ID>  (721) 
BAO_0000019

>  <Published Type>  (721) 
nan

>  <Published Relation>  (721) 
nan

>  <Published Value>  (721) 
nan

>  <Published Units>  (721) 
nan

>  <Canonical Smiles>  (721) 
COc1cc2cnc3C(=O)NC(=O)c3c2cc1OC

>  <Data Validity Comment>  (721) 
nan

>  <Document Journal>  (721) 
nan

>  <Document Year>  (721) 
nan

>  <SRC ID>  (721) 
7

>  <UO Units>  (721) 
UO_0000065

>  <Potential Duplicate>  (721) 
False

>  <Class>  (721) 
0

$$$$

     RDKit          2D

 30 33  0  0  0  0  0  0  0  0999 V2000
   -9.4140   -5.8307    0.0000 C   0  0  0  0  0  0  0  0  0  0  0  0
   -8.6640   -4.5317    0.0000 N   0  0  0  0  0  0  0  0  0  0  0  0
   -7.1640   -4.5317    0.0000 C   0  0  0  0  0  0  0  0  0  0  0  0
   -9.4140   -3.2326    0.0000 C   0  0  0  0  0  0  0  0  0  0  0  0
   -8.6640   -1.9336    0.0000 C   0  0  0  0  0  0  0  0  0  0  0  0
   -7.3649   -2.6836    0.0000 C   0  0  0  0  0  0  0  0  0  0  0  0
   -9.9630   -1.1836    0.0000 C   0  0  0  0  0  0  0  0  0  0  0  0
   -7.9140   -0.6346    0.0000 C   0  0  0  0  0  0  0  0  0  0  0  0
   -6.4140   -0.6346    0.0000 N   0  0  0  0  0  0  0  0  0  0  0  0
   -5.6640    0.6645    0.0000 C   0  0  0  0  0  0  0  0  0  0  0  0
   -6.4140    1.9635    0.0000 N   0  0  0  0  0  0  0  0  0  0  0  0
   -5.6640    3.2626    0.0000 C   0  0  0  0  0  0  0  0  0  0  0  0
   -4.1640    3.2626    0.0000 C   0  0  0  0  0  0  0  0  0  0  0  0
   -3.4140    1.9635    0.0000 C   0  0  0  0  0  0  0  0  0  0  0  0
   -4.1640    0.6645    0.0000 N   0  0  0  0  0  0  0  0  0  0  0  0
   -1.9140    1.9635    0.0000 C   0  0  0  0  0  0  0  0  0  0  0  0
   -1.0323    3.1771    0.0000 C   0  0  0  0  0  0  0  0  0  0  0  0
    0.3943    2.7135    0.0000 N   0  0  0  0  0  0  0  0  0  0  0  0
    0.3943    1.2135    0.0000 C   0  0  0  0  0  0  0  0  0  0  0  0
    1.2760    0.0000    0.0000 O   0  0  0  0  0  0  0  0  0  0  0  0
    0.3943   -1.2135    0.0000 C   0  0  0  0  0  0  0  0  0  0  0  0
   -1.0323   -0.7500    0.0000 C   0  0  0  0  0  0  0  0  0  0  0  0
   -1.0323    0.7500    0.0000 N   0  0  0  0  0  0  0  0  0  0  0  0
   -1.4958    4.6036    0.0000 C   0  0  0  0  0  0  0  0  0  0  0  0
   -0.4921    5.7184    0.0000 C   0  0  0  0  0  0  0  0  0  0  0  0
   -0.9556    7.1449    0.0000 C   0  0  0  0  0  0  0  0  0  0  0  0
   -2.4229    7.4568    0.0000 C   0  0  0  0  0  0  0  0  0  0  0  0
   -2.8864    8.8834    0.0000 F   0  0  0  0  0  0  0  0  0  0  0  0
   -3.4266    6.3421    0.0000 C   0  0  0  0  0  0  0  0  0  0  0  0
   -2.9630    4.9155    0.0000 C   0  0  0  0  0  0  0  0  0  0  0  0
  1  2  1  0
  2  3  1  0
  2  4  1  0
  4  5  1  0
  5  6  1  0
  5  7  1  0
  5  8  1  0
  8  9  1  0
  9 10  1  0
 10 11  2  0
 11 12  1  0
 12 13  2  0
 13 14  1  0
 14 15  2  0
 14 16  1  0
 16 17  2  0
 17 18  1  0
 18 19  2  0
 19 20  1  0
 20 21  1  0
 21 22  2  0
 22 23  1  0
 17 24  1  0
 24 25  2  0
 25 26  1  0
 26 27  2  0
 27 28  1  0
 27 29  1  0
 29 30  2  0
 15 10  1  0
 23 16  1  0
 23 19  1  0
 30 24  1  0
M  END
>  <Molecule>  (722) 
CHEMBL1968127

>  <Standard Type>  (722) 
Ki

>  <Standard Relation>  (722) 
>

>  <Standard Value>  (722) 
1584.89

>  <Standard Units>  (722) 
nM

>  <pChEMBL Value>  (722) 
nan

>  <Comment>  (722) 
inactive

>  <Compound Key>  (722) 
SID103904424

>  <Assay>  (722) 
CHEMBL1963742

>  <Assay Description>  (722) 
PUBCHEM_BIOASSAY: Navigating the Kinome. (Class of assay: other) Panel member name: JAK3

>  <BAO Format>  (722) 
assay format

>  <Target>  (722) 
CHEMBL2148

>  <Target Pref. Name>  (722) 
Tyrosine-protein kinase JAK3

>  <Target Organism>  (722) 
Homo sapiens

>  <Target Type>  (722) 
SINGLE PROTEIN

>  <Document>  (722) 
CHEMBL1201862

>  <Source>  (722) 
PubChem BioAssays

>  <Max Phase>  (722) 
0

>  <#Ro5 Violations>  (722) 
0

>  <Molecular Weight>  (722) 
408.48

>  <Ligand Efficiency BEI>  (722) 
nan

>  <Ligand Efficiency LE>  (722) 
nan

>  <Ligand Efficiency LLE>  (722) 
nan

>  <Ligand Efficiency SEI>  (722) 
nan

>  <ALogP>  (722) 
4.19

>  <Assay Organism>  (722) 
nan

>  <Assay Tissue ChEMBL ID>  (722) 
nan

>  <Assay Tissue Name>  (722) 
nan

>  <Assay Cell Type>  (722) 
nan

>  <Assay Subcellular Fraction>  (722) 
nan

>  <Organism Tax ID>  (722) 
9606

>  <BAO Format ID>  (722) 
BAO_0000019

>  <Published Type>  (722) 
nan

>  <Published Relation>  (722) 
nan

>  <Published Value>  (722) 
nan

>  <Published Units>  (722) 
nan

>  <Canonical Smiles>  (722) 
CN(C)CC(C)(C)CNc1nccc(n1)c2c(nc3occn23)c4ccc(F)cc4

>  <Data Validity Comment>  (722) 
nan

>  <Document Journal>  (722) 
nan

>  <Document Year>  (722) 
nan

>  <SRC ID>  (722) 
7

>  <UO Units>  (722) 
UO_0000065

>  <Potential Duplicate>  (722) 
False

>  <Class>  (722) 
0

$$$$

     RDKit          2D

 31 34  0  0  0  0  0  0  0  0999 V2000
    1.2990   -7.3573    0.0000 C   0  0  0  0  0  0  0  0  0  0  0  0
    1.2990   -5.8573    0.0000 O   0  0  0  0  0  0  0  0  0  0  0  0
   -0.0000   -5.1073    0.0000 C   0  0  0  0  0  0  0  0  0  0  0  0
   -1.2990   -5.8573    0.0000 O   0  0  0  0  0  0  0  0  0  0  0  0
   -0.0000   -3.6073    0.0000 C   0  0  0  0  0  0  0  0  0  0  0  0
    1.2135   -2.7256    0.0000 C   0  0  0  0  0  0  0  0  0  0  0  0
    2.6401   -3.1891    0.0000 C   0  0  0  0  0  0  0  0  0  0  0  0
    0.7500   -1.2990    0.0000 N   0  0  0  0  0  0  0  0  0  0  0  0
    1.5000    0.0000    0.0000 N   0  0  0  0  0  0  0  0  0  0  0  0
    0.7500    1.2990    0.0000 C   0  0  0  0  0  0  0  0  0  0  0  0
   -0.7500    1.2990    0.0000 N   0  0  0  0  0  0  0  0  0  0  0  0
   -1.5000    0.0000    0.0000 C   0  0  0  0  0  0  0  0  0  0  0  0
   -3.0000    0.0000    0.0000 N   0  0  0  0  0  0  0  0  0  0  0  0
   -0.7500   -1.2990    0.0000 C   0  0  0  0  0  0  0  0  0  0  0  0
   -1.2135   -2.7256    0.0000 C   0  0  0  0  0  0  0  0  0  0  0  0
   -2.6401   -3.1891    0.0000 C   0  0  0  0  0  0  0  0  0  0  0  0
   -3.7548   -2.1855    0.0000 C   0  0  0  0  0  0  0  0  0  0  0  0
   -5.1814   -2.6490    0.0000 C   0  0  0  0  0  0  0  0  0  0  0  0
   -5.4933   -4.1162    0.0000 C   0  0  0  0  0  0  0  0  0  0  0  0
   -6.9199   -4.5797    0.0000 N   0  0  0  0  0  0  0  0  0  0  0  0
   -8.0346   -3.5760    0.0000 C   0  0  0  0  0  0  0  0  0  0  0  0
   -7.7227   -2.1088    0.0000 O   0  0  0  0  0  0  0  0  0  0  0  0
   -9.4612   -4.0396    0.0000 N   0  0  0  0  0  0  0  0  0  0  0  0
  -10.5759   -3.0359    0.0000 C   0  0  0  0  0  0  0  0  0  0  0  0
  -10.2640   -1.5686    0.0000 C   0  0  0  0  0  0  0  0  0  0  0  0
  -11.3787   -0.5649    0.0000 C   0  0  0  0  0  0  0  0  0  0  0  0
  -12.8053   -1.0285    0.0000 C   0  0  0  0  0  0  0  0  0  0  0  0
  -13.1172   -2.4957    0.0000 C   0  0  0  0  0  0  0  0  0  0  0  0
  -12.0025   -3.4994    0.0000 C   0  0  0  0  0  0  0  0  0  0  0  0
   -4.3786   -5.1199    0.0000 C   0  0  0  0  0  0  0  0  0  0  0  0
   -2.9520   -4.6564    0.0000 C   0  0  0  0  0  0  0  0  0  0  0  0
  1  2  1  0
  2  3  1  0
  3  4  2  0
  3  5  1  0
  5  6  2  0
  6  7  1  0
  6  8  1  0
  8  9  1  0
  9 10  2  0
 10 11  1  0
 11 12  2  0
 12 13  1  0
 12 14  1  0
 14 15  2  0
 15 16  1  0
 16 17  2  0
 17 18  1  0
 18 19  2  0
 19 20  1  0
 20 21  1  0
 21 22  2  0
 21 23  1  0
 23 24  1  0
 24 25  2  0
 25 26  1  0
 26 27  2  0
 27 28  1  0
 28 29  2  0
 19 30  1  0
 30 31  2  0
 15  5  1  0
 14  8  1  0
 31 16  1  0
 29 24  1  0
M  END
>  <Molecule>  (723) 
CHEMBL1977041

>  <Standard Type>  (723) 
Ki

>  <Standard Relation>  (723) 
>

>  <Standard Value>  (723) 
1584.89

>  <Standard Units>  (723) 
nM

>  <pChEMBL Value>  (723) 
nan

>  <Comment>  (723) 
inactive

>  <Compound Key>  (723) 
SID103904316

>  <Assay>  (723) 
CHEMBL1963742

>  <Assay Description>  (723) 
PUBCHEM_BIOASSAY: Navigating the Kinome. (Class of assay: other) Panel member name: JAK3

>  <BAO Format>  (723) 
assay format

>  <Target>  (723) 
CHEMBL2148

>  <Target Pref. Name>  (723) 
Tyrosine-protein kinase JAK3

>  <Target Organism>  (723) 
Homo sapiens

>  <Target Type>  (723) 
SINGLE PROTEIN

>  <Document>  (723) 
CHEMBL1201862

>  <Source>  (723) 
PubChem BioAssays

>  <Max Phase>  (723) 
0

>  <#Ro5 Violations>  (723) 
0

>  <Molecular Weight>  (723) 
416.44

>  <Ligand Efficiency BEI>  (723) 
nan

>  <Ligand Efficiency LE>  (723) 
nan

>  <Ligand Efficiency LLE>  (723) 
nan

>  <Ligand Efficiency SEI>  (723) 
nan

>  <ALogP>  (723) 
3.72

>  <Assay Organism>  (723) 
nan

>  <Assay Tissue ChEMBL ID>  (723) 
nan

>  <Assay Tissue Name>  (723) 
nan

>  <Assay Cell Type>  (723) 
nan

>  <Assay Subcellular Fraction>  (723) 
nan

>  <Organism Tax ID>  (723) 
9606

>  <BAO Format ID>  (723) 
BAO_0000019

>  <Published Type>  (723) 
nan

>  <Published Relation>  (723) 
nan

>  <Published Value>  (723) 
nan

>  <Published Units>  (723) 
nan

>  <Canonical Smiles>  (723) 
COC(=O)c1c(C)n2ncnc(N)c2c1c3ccc(NC(=O)Nc4ccccc4)cc3

>  <Data Validity Comment>  (723) 
nan

>  <Document Journal>  (723) 
nan

>  <Document Year>  (723) 
nan

>  <SRC ID>  (723) 
7

>  <UO Units>  (723) 
UO_0000065

>  <Potential Duplicate>  (723) 
False

>  <Class>  (723) 
0

$$$$

     RDKit          2D

 29 33  0  0  0  0  0  0  0  0999 V2000
    3.0000   -7.7942    0.0000 C   0  0  0  0  0  0  0  0  0  0  0  0
    1.5000   -7.7942    0.0000 C   0  0  0  0  0  0  0  0  0  0  0  0
    0.7500   -9.0933    0.0000 C   0  0  0  0  0  0  0  0  0  0  0  0
   -0.7500   -9.0933    0.0000 C   0  0  0  0  0  0  0  0  0  0  0  0
   -1.5000   -7.7942    0.0000 C   0  0  0  0  0  0  0  0  0  0  0  0
   -0.7500   -6.4952    0.0000 C   0  0  0  0  0  0  0  0  0  0  0  0
    0.7500   -6.4952    0.0000 C   0  0  0  0  0  0  0  0  0  0  0  0
    1.5000   -5.1962    0.0000 N   0  0  0  0  0  0  0  0  0  0  0  0
    0.7500   -3.8971    0.0000 C   0  0  0  0  0  0  0  0  0  0  0  0
   -0.7500   -3.8971    0.0000 O   0  0  0  0  0  0  0  0  0  0  0  0
    1.5000   -2.5981    0.0000 N   0  0  0  0  0  0  0  0  0  0  0  0
    0.7500   -1.2990    0.0000 C   0  0  0  0  0  0  0  0  0  0  0  0
    1.5000    0.0000    0.0000 C   0  0  0  0  0  0  0  0  0  0  0  0
    0.7500    1.2990    0.0000 C   0  0  0  0  0  0  0  0  0  0  0  0
   -0.7500    1.2990    0.0000 C   0  0  0  0  0  0  0  0  0  0  0  0
   -1.5000    0.0000    0.0000 C   0  0  0  0  0  0  0  0  0  0  0  0
   -3.0000    0.0000    0.0000 C   0  0  0  0  0  0  0  0  0  0  0  0
   -3.7500    1.2990    0.0000 C   0  0  0  0  0  0  0  0  0  0  0  0
   -3.0000    2.5981    0.0000 C   0  0  0  0  0  0  0  0  0  0  0  0
   -3.4635    4.0247    0.0000 S   0  0  0  0  0  0  0  0  0  0  0  0
   -2.2500    4.9063    0.0000 C   0  0  0  0  0  0  0  0  0  0  0  0
   -2.0932    6.3981    0.0000 N   0  0  0  0  0  0  0  0  0  0  0  0
   -0.7229    7.0082    0.0000 C   0  0  0  0  0  0  0  0  0  0  0  0
    0.4906    6.1265    0.0000 N   0  0  0  0  0  0  0  0  0  0  0  0
    0.3338    4.6348    0.0000 C   0  0  0  0  0  0  0  0  0  0  0  0
    1.5474    3.7531    0.0000 N   0  0  0  0  0  0  0  0  0  0  0  0
   -1.0365    4.0247    0.0000 C   0  0  0  0  0  0  0  0  0  0  0  0
   -1.5000    2.5981    0.0000 C   0  0  0  0  0  0  0  0  0  0  0  0
   -0.7500   -1.2990    0.0000 C   0  0  0  0  0  0  0  0  0  0  0  0
  1  2  1  0
  2  3  2  0
  3  4  1  0
  4  5  2  0
  5  6  1  0
  6  7  2  0
  7  8  1  0
  8  9  1  0
  9 10  2  0
  9 11  1  0
 11 12  1  0
 12 13  2  0
 13 14  1  0
 14 15  2  0
 15 16  1  0
 16 17  1  0
 17 18  1  0
 18 19  1  0
 19 20  1  0
 20 21  1  0
 21 22  2  0
 22 23  1  0
 23 24  2  0
 24 25  1  0
 25 26  1  0
 25 27  2  0
 27 28  1  0
 16 29  2  0
  7  2  1  0
 29 12  1  0
 28 15  1  0
 28 19  2  0
 27 21  1  0
M  END
>  <Molecule>  (724) 
CHEMBL1982135

>  <Standard Type>  (724) 
Ki

>  <Standard Relation>  (724) 
>

>  <Standard Value>  (724) 
1584.89

>  <Standard Units>  (724) 
nM

>  <pChEMBL Value>  (724) 
nan

>  <Comment>  (724) 
inactive

>  <Compound Key>  (724) 
SID103904356

>  <Assay>  (724) 
CHEMBL1963742

>  <Assay Description>  (724) 
PUBCHEM_BIOASSAY: Navigating the Kinome. (Class of assay: other) Panel member name: JAK3

>  <BAO Format>  (724) 
assay format

>  <Target>  (724) 
CHEMBL2148

>  <Target Pref. Name>  (724) 
Tyrosine-protein kinase JAK3

>  <Target Organism>  (724) 
Homo sapiens

>  <Target Type>  (724) 
SINGLE PROTEIN

>  <Document>  (724) 
CHEMBL1201862

>  <Source>  (724) 
PubChem BioAssays

>  <Max Phase>  (724) 
0

>  <#Ro5 Violations>  (724) 
0

>  <Molecular Weight>  (724) 
401.5

>  <Ligand Efficiency BEI>  (724) 
nan

>  <Ligand Efficiency LE>  (724) 
nan

>  <Ligand Efficiency LLE>  (724) 
nan

>  <Ligand Efficiency SEI>  (724) 
nan

>  <ALogP>  (724) 
4.99

>  <Assay Organism>  (724) 
nan

>  <Assay Tissue ChEMBL ID>  (724) 
nan

>  <Assay Tissue Name>  (724) 
nan

>  <Assay Cell Type>  (724) 
nan

>  <Assay Subcellular Fraction>  (724) 
nan

>  <Organism Tax ID>  (724) 
9606

>  <BAO Format ID>  (724) 
BAO_0000019

>  <Published Type>  (724) 
nan

>  <Published Relation>  (724) 
nan

>  <Published Value>  (724) 
nan

>  <Published Units>  (724) 
nan

>  <Canonical Smiles>  (724) 
Cc1ccccc1NC(=O)Nc2ccc3c(CCc4sc5ncnc(N)c5c34)c2

>  <Data Validity Comment>  (724) 
nan

>  <Document Journal>  (724) 
nan

>  <Document Year>  (724) 
nan

>  <SRC ID>  (724) 
7

>  <UO Units>  (724) 
UO_0000065

>  <Potential Duplicate>  (724) 
False

>  <Class>  (724) 
0

$$$$

     RDKit          2D

 33 36  0  0  0  0  0  0  0  0999 V2000
   -3.6304   -8.2500    0.0000 C   0  0  0  0  0  0  0  0  0  0  0  0
   -3.6304   -6.7500    0.0000 N   0  0  0  0  0  0  0  0  0  0  0  0
   -4.9294   -6.0000    0.0000 C   0  0  0  0  0  0  0  0  0  0  0  0
   -2.3313   -6.0000    0.0000 C   0  0  0  0  0  0  0  0  0  0  0  0
   -2.3313   -4.5000    0.0000 C   0  0  0  0  0  0  0  0  0  0  0  0
   -2.3313   -3.0000    0.0000 C   0  0  0  0  0  0  0  0  0  0  0  0
   -2.3313   -1.5000    0.0000 C   0  0  0  0  0  0  0  0  0  0  0  0
   -3.6304   -0.7500    0.0000 C   0  0  0  0  0  0  0  0  0  0  0  0
   -3.6304    0.7500    0.0000 N   0  0  0  0  0  0  0  0  0  0  0  0
   -2.3313    1.5000    0.0000 C   0  0  0  0  0  0  0  0  0  0  0  0
   -2.3313    3.0000    0.0000 N   0  0  0  0  0  0  0  0  0  0  0  0
   -1.0323    0.7500    0.0000 C   0  0  0  0  0  0  0  0  0  0  0  0
    0.3943    1.2135    0.0000 C   0  0  0  0  0  0  0  0  0  0  0  0
    1.2760    0.0000    0.0000 C   0  0  0  0  0  0  0  0  0  0  0  0
    0.3943   -1.2135    0.0000 S   0  0  0  0  0  0  0  0  0  0  0  0
   -1.0323   -0.7500    0.0000 C   0  0  0  0  0  0  0  0  0  0  0  0
    0.8578    2.6401    0.0000 C   0  0  0  0  0  0  0  0  0  0  0  0
    2.3250    2.9520    0.0000 C   0  0  0  0  0  0  0  0  0  0  0  0
    2.7886    4.3786    0.0000 C   0  0  0  0  0  0  0  0  0  0  0  0
    1.7849    5.4933    0.0000 C   0  0  0  0  0  0  0  0  0  0  0  0
    2.2484    6.9199    0.0000 N   0  0  0  0  0  0  0  0  0  0  0  0
    3.7156    7.2317    0.0000 C   0  0  0  0  0  0  0  0  0  0  0  0
    4.7193    6.1170    0.0000 O   0  0  0  0  0  0  0  0  0  0  0  0
    4.1791    8.6583    0.0000 N   0  0  0  0  0  0  0  0  0  0  0  0
    5.6464    8.9702    0.0000 C   0  0  0  0  0  0  0  0  0  0  0  0
    6.6501    7.8555    0.0000 C   0  0  0  0  0  0  0  0  0  0  0  0
    8.1173    8.1673    0.0000 C   0  0  0  0  0  0  0  0  0  0  0  0
    8.5808    9.5939    0.0000 C   0  0  0  0  0  0  0  0  0  0  0  0
    7.5771   10.7086    0.0000 C   0  0  0  0  0  0  0  0  0  0  0  0
    8.0406   12.1352    0.0000 C   0  0  0  0  0  0  0  0  0  0  0  0
    6.1099   10.3968    0.0000 C   0  0  0  0  0  0  0  0  0  0  0  0
    0.3177    5.1814    0.0000 C   0  0  0  0  0  0  0  0  0  0  0  0
   -0.1459    3.7548    0.0000 C   0  0  0  0  0  0  0  0  0  0  0  0
  1  2  1  0
  2  3  1  0
  2  4  1  0
  4  5  1  0
  5  6  3  0
  6  7  1  0
  7  8  2  0
  8  9  1  0
  9 10  2  0
 10 11  1  0
 10 12  1  0
 12 13  1  0
 13 14  2  0
 14 15  1  0
 15 16  1  0
 13 17  1  0
 17 18  2  0
 18 19  1  0
 19 20  2  0
 20 21  1  0
 21 22  1  0
 22 23  2  0
 22 24  1  0
 24 25  1  0
 25 26  2  0
 26 27  1  0
 27 28  2  0
 28 29  1  0
 29 30  1  0
 29 31  2  0
 20 32  1  0
 32 33  2  0
 16  7  1  0
 16 12  2  0
 33 17  1  0
 31 25  1  0
M  END
>  <Molecule>  (725) 
CHEMBL1979883

>  <Standard Type>  (725) 
Ki

>  <Standard Relation>  (725) 
>

>  <Standard Value>  (725) 
1258.93

>  <Standard Units>  (725) 
nM

>  <pChEMBL Value>  (725) 
nan

>  <Comment>  (725) 
inactive

>  <Compound Key>  (725) 
SID103904280

>  <Assay>  (725) 
CHEMBL1963742

>  <Assay Description>  (725) 
PUBCHEM_BIOASSAY: Navigating the Kinome. (Class of assay: other) Panel member name: JAK3

>  <BAO Format>  (725) 
assay format

>  <Target>  (725) 
CHEMBL2148

>  <Target Pref. Name>  (725) 
Tyrosine-protein kinase JAK3

>  <Target Organism>  (725) 
Homo sapiens

>  <Target Type>  (725) 
SINGLE PROTEIN

>  <Document>  (725) 
CHEMBL1201862

>  <Source>  (725) 
PubChem BioAssays

>  <Max Phase>  (725) 
0

>  <#Ro5 Violations>  (725) 
1

>  <Molecular Weight>  (725) 
455.59

>  <Ligand Efficiency BEI>  (725) 
nan

>  <Ligand Efficiency LE>  (725) 
nan

>  <Ligand Efficiency LLE>  (725) 
nan

>  <Ligand Efficiency SEI>  (725) 
nan

>  <ALogP>  (725) 
5.41

>  <Assay Organism>  (725) 
nan

>  <Assay Tissue ChEMBL ID>  (725) 
nan

>  <Assay Tissue Name>  (725) 
nan

>  <Assay Cell Type>  (725) 
nan

>  <Assay Subcellular Fraction>  (725) 
nan

>  <Organism Tax ID>  (725) 
9606

>  <BAO Format ID>  (725) 
BAO_0000019

>  <Published Type>  (725) 
nan

>  <Published Relation>  (725) 
nan

>  <Published Value>  (725) 
nan

>  <Published Units>  (725) 
nan

>  <Canonical Smiles>  (725) 
CN(C)CC#Cc1cnc(N)c2c(csc12)c3ccc(NC(=O)Nc4cccc(C)c4)cc3

>  <Data Validity Comment>  (725) 
nan

>  <Document Journal>  (725) 
nan

>  <Document Year>  (725) 
nan

>  <SRC ID>  (725) 
7

>  <UO Units>  (725) 
UO_0000065

>  <Potential Duplicate>  (725) 
False

>  <Class>  (725) 
0

$$$$

     RDKit          2D

 31 34  0  0  0  0  0  0  0  0999 V2000
    3.7500   -1.2990    0.0000 C   0  0  0  0  0  0  0  0  0  0  0  0
    3.0000    0.0000    0.0000 O   0  0  0  0  0  0  0  0  0  0  0  0
    1.5000    0.0000    0.0000 C   0  0  0  0  0  0  0  0  0  0  0  0
    0.7500   -1.2990    0.0000 N   0  0  0  0  0  0  0  0  0  0  0  0
   -0.7500   -1.2990    0.0000 C   0  0  0  0  0  0  0  0  0  0  0  0
   -1.5000    0.0000    0.0000 C   0  0  0  0  0  0  0  0  0  0  0  0
   -0.7500    1.2990    0.0000 N   0  0  0  0  0  0  0  0  0  0  0  0
   -1.2135    2.7256    0.0000 C   0  0  0  0  0  0  0  0  0  0  0  0
   -2.6401    3.1891    0.0000 C   0  0  0  0  0  0  0  0  0  0  0  0
   -2.9520    4.6564    0.0000 C   0  0  0  0  0  0  0  0  0  0  0  0
   -4.3786    5.1199    0.0000 C   0  0  0  0  0  0  0  0  0  0  0  0
   -5.4933    4.1162    0.0000 N   0  0  0  0  0  0  0  0  0  0  0  0
   -5.1814    2.6490    0.0000 C   0  0  0  0  0  0  0  0  0  0  0  0
   -6.2961    1.6453    0.0000 N   0  0  0  0  0  0  0  0  0  0  0  0
   -7.7227    2.1088    0.0000 C   0  0  0  0  0  0  0  0  0  0  0  0
   -8.8374    1.1051    0.0000 C   0  0  0  0  0  0  0  0  0  0  0  0
   -7.8337   -0.0096    0.0000 C   0  0  0  0  0  0  0  0  0  0  0  0
   -9.8411    2.2198    0.0000 C   0  0  0  0  0  0  0  0  0  0  0  0
   -9.9521    0.1014    0.0000 C   0  0  0  0  0  0  0  0  0  0  0  0
   -9.6403   -1.3658    0.0000 O   0  0  0  0  0  0  0  0  0  0  0  0
   -3.7548    2.1855    0.0000 N   0  0  0  0  0  0  0  0  0  0  0  0
   -0.0000    3.6073    0.0000 C   0  0  0  0  0  0  0  0  0  0  0  0
    1.2135    2.7256    0.0000 N   0  0  0  0  0  0  0  0  0  0  0  0
    0.7500    1.2990    0.0000 C   0  0  0  0  0  0  0  0  0  0  0  0
   -0.0000    5.1073    0.0000 C   0  0  0  0  0  0  0  0  0  0  0  0
    1.2990    5.8573    0.0000 C   0  0  0  0  0  0  0  0  0  0  0  0
    1.2990    7.3573    0.0000 C   0  0  0  0  0  0  0  0  0  0  0  0
   -0.0000    8.1073    0.0000 C   0  0  0  0  0  0  0  0  0  0  0  0
   -0.0000    9.6073    0.0000 F   0  0  0  0  0  0  0  0  0  0  0  0
   -1.2990    7.3573    0.0000 C   0  0  0  0  0  0  0  0  0  0  0  0
   -1.2990    5.8573    0.0000 C   0  0  0  0  0  0  0  0  0  0  0  0
  1  2  1  0
  2  3  1  0
  3  4  2  0
  4  5  1  0
  5  6  2  0
  6  7  1  0
  7  8  1  0
  8  9  1  0
  9 10  2  0
 10 11  1  0
 11 12  2  0
 12 13  1  0
 13 14  1  0
 14 15  1  0
 15 16  1  0
 16 17  1  0
 16 18  1  0
 16 19  1  0
 19 20  1  0
 13 21  2  0
  8 22  2  0
 22 23  1  0
 23 24  2  0
 22 25  1  0
 25 26  2  0
 26 27  1  0
 27 28  2  0
 28 29  1  0
 28 30  1  0
 30 31  2  0
 24  3  1  0
 24  7  1  0
 21  9  1  0
 31 25  1  0
M  END
>  <Molecule>  (726) 
CHEMBL2005792

>  <Standard Type>  (726) 
Ki

>  <Standard Relation>  (726) 
>

>  <Standard Value>  (726) 
3162.28

>  <Standard Units>  (726) 
nM

>  <pChEMBL Value>  (726) 
nan

>  <Comment>  (726) 
inactive

>  <Compound Key>  (726) 
SID103904776

>  <Assay>  (726) 
CHEMBL1963742

>  <Assay Description>  (726) 
PUBCHEM_BIOASSAY: Navigating the Kinome. (Class of assay: other) Panel member name: JAK3

>  <BAO Format>  (726) 
assay format

>  <Target>  (726) 
CHEMBL2148

>  <Target Pref. Name>  (726) 
Tyrosine-protein kinase JAK3

>  <Target Organism>  (726) 
Homo sapiens

>  <Target Type>  (726) 
SINGLE PROTEIN

>  <Document>  (726) 
CHEMBL1201862

>  <Source>  (726) 
PubChem BioAssays

>  <Max Phase>  (726) 
0

>  <#Ro5 Violations>  (726) 
0

>  <Molecular Weight>  (726) 
422.46

>  <Ligand Efficiency BEI>  (726) 
nan

>  <Ligand Efficiency LE>  (726) 
nan

>  <Ligand Efficiency LLE>  (726) 
nan

>  <Ligand Efficiency SEI>  (726) 
nan

>  <ALogP>  (726) 
3.43

>  <Assay Organism>  (726) 
nan

>  <Assay Tissue ChEMBL ID>  (726) 
nan

>  <Assay Tissue Name>  (726) 
nan

>  <Assay Cell Type>  (726) 
nan

>  <Assay Subcellular Fraction>  (726) 
nan

>  <Organism Tax ID>  (726) 
9606

>  <BAO Format ID>  (726) 
BAO_0000019

>  <Published Type>  (726) 
nan

>  <Published Relation>  (726) 
nan

>  <Published Value>  (726) 
nan

>  <Published Units>  (726) 
nan

>  <Canonical Smiles>  (726) 
COc1nccn2c(c3ccnc(NCC(C)(C)CO)n3)c(nc12)c4ccc(F)cc4

>  <Data Validity Comment>  (726) 
nan

>  <Document Journal>  (726) 
nan

>  <Document Year>  (726) 
nan

>  <SRC ID>  (726) 
7

>  <UO Units>  (726) 
UO_0000065

>  <Potential Duplicate>  (726) 
False

>  <Class>  (726) 
0

$$$$

     RDKit          2D

 21 24  0  0  0  0  0  0  0  0999 V2000
    1.2990   -7.3573    0.0000 O   0  0  0  0  0  0  0  0  0  0  0  0
    1.2990   -5.8573    0.0000 N   0  0  0  0  0  0  0  0  0  0  0  0
   -0.0000   -5.1073    0.0000 C   0  0  0  0  0  0  0  0  0  0  0  0
   -0.0000   -3.6073    0.0000 C   0  0  0  0  0  0  0  0  0  0  0  0
    1.2135   -2.7256    0.0000 N   0  0  0  0  0  0  0  0  0  0  0  0
    0.7500   -1.2990    0.0000 C   0  0  0  0  0  0  0  0  0  0  0  0
    1.5000    0.0000    0.0000 C   0  0  0  0  0  0  0  0  0  0  0  0
    0.7500    1.2990    0.0000 C   0  0  0  0  0  0  0  0  0  0  0  0
   -0.7500    1.2990    0.0000 C   0  0  0  0  0  0  0  0  0  0  0  0
   -1.5000    0.0000    0.0000 C   0  0  0  0  0  0  0  0  0  0  0  0
   -0.7500   -1.2990    0.0000 C   0  0  0  0  0  0  0  0  0  0  0  0
   -1.2135   -2.7256    0.0000 N   0  0  0  0  0  0  0  0  0  0  0  0
   -1.2990   -5.8573    0.0000 C   0  0  0  0  0  0  0  0  0  0  0  0
   -2.6694   -5.2472    0.0000 N   0  0  0  0  0  0  0  0  0  0  0  0
   -3.6731   -6.3619    0.0000 C   0  0  0  0  0  0  0  0  0  0  0  0
   -5.1731   -6.3619    0.0000 C   0  0  0  0  0  0  0  0  0  0  0  0
   -5.9231   -7.6610    0.0000 C   0  0  0  0  0  0  0  0  0  0  0  0
   -5.1731   -8.9600    0.0000 C   0  0  0  0  0  0  0  0  0  0  0  0
   -3.6731   -8.9600    0.0000 C   0  0  0  0  0  0  0  0  0  0  0  0
   -2.9231   -7.6610    0.0000 C   0  0  0  0  0  0  0  0  0  0  0  0
   -1.4558   -7.3491    0.0000 N   0  0  0  0  0  0  0  0  0  0  0  0
  1  2  1  0
  2  3  2  3
  3  4  1  0
  4  5  2  0
  5  6  1  0
  6  7  2  0
  7  8  1  0
  8  9  2  0
  9 10  1  0
 10 11  2  0
 11 12  1  0
  3 13  1  0
 13 14  2  0
 14 15  1  0
 15 16  2  0
 16 17  1  0
 17 18  2  0
 18 19  1  0
 19 20  2  0
 20 21  1  0
 12  4  1  0
 11  6  1  0
 21 13  1  0
 20 15  1  0
M  END
>  <Molecule>  (727) 
CHEMBL546797

>  <Standard Type>  (727) 
Ki

>  <Standard Relation>  (727) 
>

>  <Standard Value>  (727) 
5011.87

>  <Standard Units>  (727) 
nM

>  <pChEMBL Value>  (727) 
nan

>  <Comment>  (727) 
inactive

>  <Compound Key>  (727) 
SID103904925

>  <Assay>  (727) 
CHEMBL1963742

>  <Assay Description>  (727) 
PUBCHEM_BIOASSAY: Navigating the Kinome. (Class of assay: other) Panel member name: JAK3

>  <BAO Format>  (727) 
assay format

>  <Target>  (727) 
CHEMBL2148

>  <Target Pref. Name>  (727) 
Tyrosine-protein kinase JAK3

>  <Target Organism>  (727) 
Homo sapiens

>  <Target Type>  (727) 
SINGLE PROTEIN

>  <Document>  (727) 
CHEMBL1201862

>  <Source>  (727) 
PubChem BioAssays

>  <Max Phase>  (727) 
0

>  <#Ro5 Violations>  (727) 
0

>  <Molecular Weight>  (727) 
277.29

>  <Ligand Efficiency BEI>  (727) 
nan

>  <Ligand Efficiency LE>  (727) 
nan

>  <Ligand Efficiency LLE>  (727) 
nan

>  <Ligand Efficiency SEI>  (727) 
nan

>  <ALogP>  (727) 
2.67

>  <Assay Organism>  (727) 
nan

>  <Assay Tissue ChEMBL ID>  (727) 
nan

>  <Assay Tissue Name>  (727) 
nan

>  <Assay Cell Type>  (727) 
nan

>  <Assay Subcellular Fraction>  (727) 
nan

>  <Organism Tax ID>  (727) 
9606

>  <BAO Format ID>  (727) 
BAO_0000019

>  <Published Type>  (727) 
nan

>  <Published Relation>  (727) 
nan

>  <Published Value>  (727) 
nan

>  <Published Units>  (727) 
nan

>  <Canonical Smiles>  (727) 
ON=C(c1nc2ccccc2[nH]1)c3nc4ccccc4[nH]3

>  <Data Validity Comment>  (727) 
nan

>  <Document Journal>  (727) 
nan

>  <Document Year>  (727) 
nan

>  <SRC ID>  (727) 
7

>  <UO Units>  (727) 
UO_0000065

>  <Potential Duplicate>  (727) 
False

>  <Class>  (727) 
0

$$$$

     RDKit          2D

 25 27  0  0  0  0  0  0  0  0999 V2000
    3.0000    0.0000    0.0000 C   0  0  0  0  0  0  0  0  0  0  0  0
    1.5000    0.0000    0.0000 C   0  0  0  0  0  0  0  0  0  0  0  0
    0.7500   -1.2990    0.0000 C   0  0  0  0  0  0  0  0  0  0  0  0
   -0.7500   -1.2990    0.0000 C   0  0  0  0  0  0  0  0  0  0  0  0
   -1.5000    0.0000    0.0000 C   0  0  0  0  0  0  0  0  0  0  0  0
   -0.7500    1.2990    0.0000 C   0  0  0  0  0  0  0  0  0  0  0  0
   -1.5000    2.5981    0.0000 N   0  0  0  0  0  0  0  0  0  0  0  0
   -0.7500    3.8971    0.0000 C   0  0  0  0  0  0  0  0  0  0  0  0
    0.7500    3.8971    0.0000 N   0  0  0  0  0  0  0  0  0  0  0  0
    1.5000    5.1962    0.0000 C   0  0  0  0  0  0  0  0  0  0  0  0
    3.0000    5.1962    0.0000 N   0  0  0  0  0  0  0  0  0  0  0  0
    3.7500    3.8971    0.0000 C   0  0  0  0  0  0  0  0  0  0  0  0
    3.0000    2.5981    0.0000 C   0  0  0  0  0  0  0  0  0  0  0  0
    3.7500    1.2990    0.0000 C   0  0  0  0  0  0  0  0  0  0  0  0
    5.2500    1.2990    0.0000 C   0  0  0  0  0  0  0  0  0  0  0  0
    6.0000    2.5981    0.0000 C   0  0  0  0  0  0  0  0  0  0  0  0
    5.2500    3.8971    0.0000 C   0  0  0  0  0  0  0  0  0  0  0  0
    6.0000    5.1962    0.0000 N   0  0  0  0  0  0  0  0  0  0  0  0
    0.7500    6.4952    0.0000 C   0  0  0  0  0  0  0  0  0  0  0  0
   -0.7500    6.4952    0.0000 N   0  0  0  0  0  0  0  0  0  0  0  0
   -1.5000    5.1962    0.0000 C   0  0  0  0  0  0  0  0  0  0  0  0
   -3.0000    5.1962    0.0000 C   0  0  0  0  0  0  0  0  0  0  0  0
   -3.7500    3.8971    0.0000 O   0  0  0  0  0  0  0  0  0  0  0  0
   -3.7500    6.4952    0.0000 N   0  0  0  0  0  0  0  0  0  0  0  0
    0.7500    1.2990    0.0000 C   0  0  0  0  0  0  0  0  0  0  0  0
  1  2  1  0
  2  3  2  0
  3  4  1  0
  4  5  2  0
  5  6  1  0
  6  7  1  0
  7  8  1  0
  8  9  2  0
  9 10  1  0
 10 11  1  0
 11 12  1  0
 12 13  1  0
 13 14  1  0
 14 15  1  0
 15 16  1  0
 16 17  1  0
 17 18  1  0
 10 19  2  0
 19 20  1  0
 20 21  2  0
 21 22  1  0
 22 23  2  0
 22 24  1  0
  6 25  2  0
 25  2  1  0
 21  8  1  0
 17 12  1  0
M  END
>  <Molecule>  (728) 
CHEMBL1974328

>  <Standard Type>  (728) 
Ki

>  <Standard Relation>  (728) 
=

>  <Standard Value>  (728) 
1000.0

>  <Standard Units>  (728) 
nM

>  <pChEMBL Value>  (728) 
6.0

>  <Comment>  (728) 
active

>  <Compound Key>  (728) 
SID103904806

>  <Assay>  (728) 
CHEMBL1963742

>  <Assay Description>  (728) 
PUBCHEM_BIOASSAY: Navigating the Kinome. (Class of assay: other) Panel member name: JAK3

>  <BAO Format>  (728) 
assay format

>  <Target>  (728) 
CHEMBL2148

>  <Target Pref. Name>  (728) 
Tyrosine-protein kinase JAK3

>  <Target Organism>  (728) 
Homo sapiens

>  <Target Type>  (728) 
SINGLE PROTEIN

>  <Document>  (728) 
CHEMBL1201862

>  <Source>  (728) 
PubChem BioAssays

>  <Max Phase>  (728) 
0

>  <#Ro5 Violations>  (728) 
0

>  <Molecular Weight>  (728) 
340.43

>  <Ligand Efficiency BEI>  (728) 
nan

>  <Ligand Efficiency LE>  (728) 
nan

>  <Ligand Efficiency LLE>  (728) 
nan

>  <Ligand Efficiency SEI>  (728) 
nan

>  <ALogP>  (728) 
2.31

>  <Assay Organism>  (728) 
nan

>  <Assay Tissue ChEMBL ID>  (728) 
nan

>  <Assay Tissue Name>  (728) 
nan

>  <Assay Cell Type>  (728) 
nan

>  <Assay Subcellular Fraction>  (728) 
nan

>  <Organism Tax ID>  (728) 
9606

>  <BAO Format ID>  (728) 
BAO_0000019

>  <Published Type>  (728) 
nan

>  <Published Relation>  (728) 
nan

>  <Published Value>  (728) 
nan

>  <Published Units>  (728) 
nan

>  <Canonical Smiles>  (728) 
Cc1cccc(Nc2nc(NC3CCCCC3N)cnc2C(=O)N)c1

>  <Data Validity Comment>  (728) 
nan

>  <Document Journal>  (728) 
nan

>  <Document Year>  (728) 
nan

>  <SRC ID>  (728) 
7

>  <UO Units>  (728) 
UO_0000065

>  <Potential Duplicate>  (728) 
False

>  <Class>  (728) 
1

$$$$

     RDKit          2D

 17 19  0  0  0  0  0  0  0  0999 V2000
   -6.2961   -1.6453    0.0000 N   0  0  0  0  0  0  0  0  0  0  0  0
   -5.1814   -2.6490    0.0000 C   0  0  0  0  0  0  0  0  0  0  0  0
   -3.7548   -2.1855    0.0000 C   0  0  0  0  0  0  0  0  0  0  0  0
   -2.6401   -3.1891    0.0000 C   0  0  0  0  0  0  0  0  0  0  0  0
   -2.9520   -4.6564    0.0000 C   0  0  0  0  0  0  0  0  0  0  0  0
   -4.3786   -5.1199    0.0000 C   0  0  0  0  0  0  0  0  0  0  0  0
   -4.6904   -6.5871    0.0000 Cl  0  0  0  0  0  0  0  0  0  0  0  0
   -5.4933   -4.1162    0.0000 N   0  0  0  0  0  0  0  0  0  0  0  0
   -1.2135   -2.7256    0.0000 C   0  0  0  0  0  0  0  0  0  0  0  0
    0.0000   -3.6073    0.0000 C   0  0  0  0  0  0  0  0  0  0  0  0
    1.2135   -2.7256    0.0000 N   0  0  0  0  0  0  0  0  0  0  0  0
    0.7500   -1.2990    0.0000 C   0  0  0  0  0  0  0  0  0  0  0  0
    1.5000    0.0000    0.0000 N   0  0  0  0  0  0  0  0  0  0  0  0
    0.7500    1.2990    0.0000 C   0  0  0  0  0  0  0  0  0  0  0  0
   -0.7500    1.2990    0.0000 C   0  0  0  0  0  0  0  0  0  0  0  0
   -1.5000    0.0000    0.0000 C   0  0  0  0  0  0  0  0  0  0  0  0
   -0.7500   -1.2990    0.0000 C   0  0  0  0  0  0  0  0  0  0  0  0
  1  2  1  0
  2  3  2  0
  3  4  1  0
  4  5  2  0
  5  6  1  0
  6  7  1  0
  6  8  2  0
  4  9  1  0
  9 10  2  0
 10 11  1  0
 11 12  1  0
 12 13  2  0
 13 14  1  0
 14 15  2  0
 15 16  1  0
 16 17  2  0
  8  2  1  0
 17  9  1  0
 17 12  1  0
M  END
>  <Molecule>  (729) 
CHEMBL1987448

>  <Standard Type>  (729) 
Ki

>  <Standard Relation>  (729) 
=

>  <Standard Value>  (729) 
3162.28

>  <Standard Units>  (729) 
nM

>  <pChEMBL Value>  (729) 
5.5

>  <Comment>  (729) 
active

>  <Compound Key>  (729) 
SID103904234

>  <Assay>  (729) 
CHEMBL1963742

>  <Assay Description>  (729) 
PUBCHEM_BIOASSAY: Navigating the Kinome. (Class of assay: other) Panel member name: JAK3

>  <BAO Format>  (729) 
assay format

>  <Target>  (729) 
CHEMBL2148

>  <Target Pref. Name>  (729) 
Tyrosine-protein kinase JAK3

>  <Target Organism>  (729) 
Homo sapiens

>  <Target Type>  (729) 
SINGLE PROTEIN

>  <Document>  (729) 
CHEMBL1201862

>  <Source>  (729) 
PubChem BioAssays

>  <Max Phase>  (729) 
0

>  <#Ro5 Violations>  (729) 
0

>  <Molecular Weight>  (729) 
244.69

>  <Ligand Efficiency BEI>  (729) 
nan

>  <Ligand Efficiency LE>  (729) 
nan

>  <Ligand Efficiency LLE>  (729) 
nan

>  <Ligand Efficiency SEI>  (729) 
nan

>  <ALogP>  (729) 
2.86

>  <Assay Organism>  (729) 
nan

>  <Assay Tissue ChEMBL ID>  (729) 
nan

>  <Assay Tissue Name>  (729) 
nan

>  <Assay Cell Type>  (729) 
nan

>  <Assay Subcellular Fraction>  (729) 
nan

>  <Organism Tax ID>  (729) 
9606

>  <BAO Format ID>  (729) 
BAO_0000019

>  <Published Type>  (729) 
nan

>  <Published Relation>  (729) 
nan

>  <Published Value>  (729) 
nan

>  <Published Units>  (729) 
nan

>  <Canonical Smiles>  (729) 
Nc1cc(cc(Cl)n1)c2c[nH]c3ncccc23

>  <Data Validity Comment>  (729) 
nan

>  <Document Journal>  (729) 
nan

>  <Document Year>  (729) 
nan

>  <SRC ID>  (729) 
7

>  <UO Units>  (729) 
UO_0000065

>  <Potential Duplicate>  (729) 
False

>  <Class>  (729) 
1

$$$$

     RDKit          2D

 28 31  0  0  0  0  0  0  0  0999 V2000
   -2.1955    5.1507    0.0000 C   0  0  0  0  0  0  0  0  0  0  0  0
   -3.6221    4.6871    0.0000 S   0  0  0  0  0  0  0  0  0  0  0  0
   -3.1585    3.2605    0.0000 O   0  0  0  0  0  0  0  0  0  0  0  0
   -4.0856    6.1137    0.0000 O   0  0  0  0  0  0  0  0  0  0  0  0
   -5.0487    4.2236    0.0000 N   0  0  0  0  0  0  0  0  0  0  0  0
   -5.3605    2.7564    0.0000 C   0  0  0  0  0  0  0  0  0  0  0  0
   -4.2458    1.7527    0.0000 C   0  0  0  0  0  0  0  0  0  0  0  0
   -4.5577    0.2855    0.0000 C   0  0  0  0  0  0  0  0  0  0  0  0
   -5.9843   -0.1781    0.0000 C   0  0  0  0  0  0  0  0  0  0  0  0
   -7.0990    0.8256    0.0000 C   0  0  0  0  0  0  0  0  0  0  0  0
   -6.7871    2.2929    0.0000 C   0  0  0  0  0  0  0  0  0  0  0  0
   -6.2961   -1.6453    0.0000 N   0  0  0  0  0  0  0  0  0  0  0  0
   -5.1814   -2.6490    0.0000 C   0  0  0  0  0  0  0  0  0  0  0  0
   -5.4933   -4.1162    0.0000 C   0  0  0  0  0  0  0  0  0  0  0  0
   -4.3786   -5.1199    0.0000 C   0  0  0  0  0  0  0  0  0  0  0  0
   -4.6904   -6.5871    0.0000 Cl  0  0  0  0  0  0  0  0  0  0  0  0
   -2.9520   -4.6564    0.0000 N   0  0  0  0  0  0  0  0  0  0  0  0
   -2.6401   -3.1891    0.0000 C   0  0  0  0  0  0  0  0  0  0  0  0
   -3.7548   -2.1855    0.0000 N   0  0  0  0  0  0  0  0  0  0  0  0
   -1.2135   -2.7256    0.0000 C   0  0  0  0  0  0  0  0  0  0  0  0
    0.0000   -3.6073    0.0000 C   0  0  0  0  0  0  0  0  0  0  0  0
    1.2135   -2.7256    0.0000 N   0  0  0  0  0  0  0  0  0  0  0  0
    0.7500   -1.2990    0.0000 C   0  0  0  0  0  0  0  0  0  0  0  0
    1.5000    0.0000    0.0000 N   0  0  0  0  0  0  0  0  0  0  0  0
    0.7500    1.2990    0.0000 C   0  0  0  0  0  0  0  0  0  0  0  0
   -0.7500    1.2990    0.0000 C   0  0  0  0  0  0  0  0  0  0  0  0
   -1.5000    0.0000    0.0000 C   0  0  0  0  0  0  0  0  0  0  0  0
   -0.7500   -1.2990    0.0000 C   0  0  0  0  0  0  0  0  0  0  0  0
  1  2  1  0
  2  3  2  0
  2  4  2  0
  2  5  1  0
  5  6  1  0
  6  7  1  0
  7  8  1  0
  8  9  1  0
  9 10  1  0
 10 11  1  0
  9 12  1  0
 12 13  1  0
 13 14  2  0
 14 15  1  0
 15 16  1  0
 15 17  2  0
 17 18  1  0
 18 19  2  0
 18 20  1  0
 20 21  2  0
 21 22  1  0
 22 23  1  0
 23 24  2  0
 24 25  1  0
 25 26  2  0
 26 27  1  0
 27 28  2  0
 11  6  1  0
 19 13  1  0
 28 20  1  0
 28 23  1  0
M  END
>  <Molecule>  (730) 
CHEMBL2005216

>  <Standard Type>  (730) 
Ki

>  <Standard Relation>  (730) 
=

>  <Standard Value>  (730) 
158.49

>  <Standard Units>  (730) 
nM

>  <pChEMBL Value>  (730) 
6.8

>  <Comment>  (730) 
active

>  <Compound Key>  (730) 
SID103904260

>  <Assay>  (730) 
CHEMBL1963742

>  <Assay Description>  (730) 
PUBCHEM_BIOASSAY: Navigating the Kinome. (Class of assay: other) Panel member name: JAK3

>  <BAO Format>  (730) 
assay format

>  <Target>  (730) 
CHEMBL2148

>  <Target Pref. Name>  (730) 
Tyrosine-protein kinase JAK3

>  <Target Organism>  (730) 
Homo sapiens

>  <Target Type>  (730) 
SINGLE PROTEIN

>  <Document>  (730) 
CHEMBL1201862

>  <Source>  (730) 
PubChem BioAssays

>  <Max Phase>  (730) 
0

>  <#Ro5 Violations>  (730) 
0

>  <Molecular Weight>  (730) 
420.93

>  <Ligand Efficiency BEI>  (730) 
nan

>  <Ligand Efficiency LE>  (730) 
nan

>  <Ligand Efficiency LLE>  (730) 
nan

>  <Ligand Efficiency SEI>  (730) 
nan

>  <ALogP>  (730) 
2.95

>  <Assay Organism>  (730) 
nan

>  <Assay Tissue ChEMBL ID>  (730) 
nan

>  <Assay Tissue Name>  (730) 
nan

>  <Assay Cell Type>  (730) 
nan

>  <Assay Subcellular Fraction>  (730) 
nan

>  <Organism Tax ID>  (730) 
9606

>  <BAO Format ID>  (730) 
BAO_0000019

>  <Published Type>  (730) 
nan

>  <Published Relation>  (730) 
nan

>  <Published Value>  (730) 
nan

>  <Published Units>  (730) 
nan

>  <Canonical Smiles>  (730) 
CS(=O)(=O)NC1CCC(CC1)Nc2cc(Cl)nc(n2)c3c[nH]c4ncccc34

>  <Data Validity Comment>  (730) 
nan

>  <Document Journal>  (730) 
nan

>  <Document Year>  (730) 
nan

>  <SRC ID>  (730) 
7

>  <UO Units>  (730) 
UO_0000065

>  <Potential Duplicate>  (730) 
False

>  <Class>  (730) 
1

$$$$

     RDKit          2D

 18 21  0  0  0  0  0  0  0  0999 V2000
    1.2760    0.0000    0.0000 C   0  0  0  0  0  0  0  0  0  0  0  0
    0.3943    1.2135    0.0000 O   0  0  0  0  0  0  0  0  0  0  0  0
   -1.0323    0.7500    0.0000 C   0  0  0  0  0  0  0  0  0  0  0  0
   -2.3313    1.5000    0.0000 C   0  0  0  0  0  0  0  0  0  0  0  0
   -3.6304    0.7500    0.0000 C   0  0  0  0  0  0  0  0  0  0  0  0
   -3.6304   -0.7500    0.0000 C   0  0  0  0  0  0  0  0  0  0  0  0
   -2.3313   -1.5000    0.0000 C   0  0  0  0  0  0  0  0  0  0  0  0
   -1.0323   -0.7500    0.0000 C   0  0  0  0  0  0  0  0  0  0  0  0
    0.3943   -1.2135    0.0000 O   0  0  0  0  0  0  0  0  0  0  0  0
   -4.9294   -1.5000    0.0000 C   0  0  0  0  0  0  0  0  0  0  0  0
   -4.9294   -3.0000    0.0000 N   0  0  0  0  0  0  0  0  0  0  0  0
   -6.2284   -3.7500    0.0000 C   0  0  0  0  0  0  0  0  0  0  0  0
   -7.5275   -3.0000    0.0000 N   0  0  0  0  0  0  0  0  0  0  0  0
   -7.5275   -1.5000    0.0000 C   0  0  0  0  0  0  0  0  0  0  0  0
   -8.6422   -0.4963    0.0000 N   0  0  0  0  0  0  0  0  0  0  0  0
   -8.0321    0.8740    0.0000 C   0  0  0  0  0  0  0  0  0  0  0  0
   -6.5403    0.7172    0.0000 C   0  0  0  0  0  0  0  0  0  0  0  0
   -6.2284   -0.7500    0.0000 C   0  0  0  0  0  0  0  0  0  0  0  0
  1  2  1  0
  2  3  1  0
  3  4  2  0
  4  5  1  0
  5  6  2  0
  6  7  1  0
  7  8  2  0
  8  9  1  0
  6 10  1  0
 10 11  2  0
 11 12  1  0
 12 13  2  0
 13 14  1  0
 14 15  1  0
 15 16  1  0
 16 17  2  0
 17 18  1  0
  9  1  1  0
  8  3  1  0
 18 10  1  0
 18 14  2  0
M  END
>  <Molecule>  (731) 
CHEMBL2004515

>  <Standard Type>  (731) 
Ki

>  <Standard Relation>  (731) 
=

>  <Standard Value>  (731) 
3981.07

>  <Standard Units>  (731) 
nM

>  <pChEMBL Value>  (731) 
5.4

>  <Comment>  (731) 
active

>  <Compound Key>  (731) 
SID103905089

>  <Assay>  (731) 
CHEMBL1963742

>  <Assay Description>  (731) 
PUBCHEM_BIOASSAY: Navigating the Kinome. (Class of assay: other) Panel member name: JAK3

>  <BAO Format>  (731) 
assay format

>  <Target>  (731) 
CHEMBL2148

>  <Target Pref. Name>  (731) 
Tyrosine-protein kinase JAK3

>  <Target Organism>  (731) 
Homo sapiens

>  <Target Type>  (731) 
SINGLE PROTEIN

>  <Document>  (731) 
CHEMBL1201862

>  <Source>  (731) 
PubChem BioAssays

>  <Max Phase>  (731) 
0

>  <#Ro5 Violations>  (731) 
0

>  <Molecular Weight>  (731) 
239.23

>  <Ligand Efficiency BEI>  (731) 
nan

>  <Ligand Efficiency LE>  (731) 
nan

>  <Ligand Efficiency LLE>  (731) 
nan

>  <Ligand Efficiency SEI>  (731) 
nan

>  <ALogP>  (731) 
2.35

>  <Assay Organism>  (731) 
nan

>  <Assay Tissue ChEMBL ID>  (731) 
nan

>  <Assay Tissue Name>  (731) 
nan

>  <Assay Cell Type>  (731) 
nan

>  <Assay Subcellular Fraction>  (731) 
nan

>  <Organism Tax ID>  (731) 
9606

>  <BAO Format ID>  (731) 
BAO_0000019

>  <Published Type>  (731) 
nan

>  <Published Relation>  (731) 
nan

>  <Published Value>  (731) 
nan

>  <Published Units>  (731) 
nan

>  <Canonical Smiles>  (731) 
C1Oc2ccc(cc2O1)c3ncnc4[nH]ccc34

>  <Data Validity Comment>  (731) 
nan

>  <Document Journal>  (731) 
nan

>  <Document Year>  (731) 
nan

>  <SRC ID>  (731) 
7

>  <UO Units>  (731) 
UO_0000065

>  <Potential Duplicate>  (731) 
False

>  <Class>  (731) 
1

$$$$

     RDKit          2D

 23 26  0  0  0  0  0  0  0  0999 V2000
    3.0000   -2.5981    0.0000 C   0  0  0  0  0  0  0  0  0  0  0  0
    1.5000   -2.5981    0.0000 N   0  0  0  0  0  0  0  0  0  0  0  0
    0.7500   -1.2990    0.0000 C   0  0  0  0  0  0  0  0  0  0  0  0
    1.5000    0.0000    0.0000 C   0  0  0  0  0  0  0  0  0  0  0  0
    0.7500    1.2990    0.0000 C   0  0  0  0  0  0  0  0  0  0  0  0
   -0.7500    1.2990    0.0000 C   0  0  0  0  0  0  0  0  0  0  0  0
   -1.5000    2.5981    0.0000 N   0  0  0  0  0  0  0  0  0  0  0  0
   -1.5000    0.0000    0.0000 C   0  0  0  0  0  0  0  0  0  0  0  0
   -0.7500   -1.2990    0.0000 C   0  0  0  0  0  0  0  0  0  0  0  0
   -1.5000   -2.5981    0.0000 C   0  0  0  0  0  0  0  0  0  0  0  0
   -3.0000   -2.5981    0.0000 C   0  0  0  0  0  0  0  0  0  0  0  0
   -3.7500   -1.2990    0.0000 C   0  0  0  0  0  0  0  0  0  0  0  0
   -5.2500   -1.2990    0.0000 C   0  0  0  0  0  0  0  0  0  0  0  0
   -6.0000   -2.5981    0.0000 C   0  0  0  0  0  0  0  0  0  0  0  0
   -5.2500   -3.8971    0.0000 C   0  0  0  0  0  0  0  0  0  0  0  0
   -3.7500   -3.8971    0.0000 C   0  0  0  0  0  0  0  0  0  0  0  0
   -0.7500   -3.8971    0.0000 C   0  0  0  0  0  0  0  0  0  0  0  0
   -1.5000   -5.1962    0.0000 C   0  0  0  0  0  0  0  0  0  0  0  0
   -0.7500   -6.4952    0.0000 C   0  0  0  0  0  0  0  0  0  0  0  0
   -1.5000   -7.7942    0.0000 N   0  0  0  0  0  0  0  0  0  0  0  0
    0.7500   -6.4952    0.0000 C   0  0  0  0  0  0  0  0  0  0  0  0
    1.5000   -5.1962    0.0000 C   0  0  0  0  0  0  0  0  0  0  0  0
    0.7500   -3.8971    0.0000 C   0  0  0  0  0  0  0  0  0  0  0  0
  1  2  1  0
  2  3  1  0
  3  4  2  0
  4  5  1  0
  5  6  2  0
  6  7  1  0
  6  8  1  0
  8  9  2  0
  9 10  1  0
 10 11  1  0
 11 12  2  0
 12 13  1  0
 13 14  2  0
 14 15  1  0
 15 16  2  0
 10 17  1  0
 17 18  2  0
 18 19  1  0
 19 20  1  0
 19 21  2  0
 21 22  1  0
 22 23  2  0
 23  2  1  0
  9  3  1  0
 16 11  1  0
 23 17  1  0
M  END
>  <Molecule>  (732) 
CHEMBL1991734

>  <Standard Type>  (732) 
Ki

>  <Standard Relation>  (732) 
=

>  <Standard Value>  (732) 
398.11

>  <Standard Units>  (732) 
nM

>  <pChEMBL Value>  (732) 
6.4

>  <Comment>  (732) 
active

>  <Compound Key>  (732) 
SID103905368

>  <Assay>  (732) 
CHEMBL1963742

>  <Assay Description>  (732) 
PUBCHEM_BIOASSAY: Navigating the Kinome. (Class of assay: other) Panel member name: JAK3

>  <BAO Format>  (732) 
assay format

>  <Target>  (732) 
CHEMBL2148

>  <Target Pref. Name>  (732) 
Tyrosine-protein kinase JAK3

>  <Target Organism>  (732) 
Homo sapiens

>  <Target Type>  (732) 
SINGLE PROTEIN

>  <Document>  (732) 
CHEMBL1201862

>  <Source>  (732) 
PubChem BioAssays

>  <Max Phase>  (732) 
0

>  <#Ro5 Violations>  (732) 
0

>  <Molecular Weight>  (732) 
301.39

>  <Ligand Efficiency BEI>  (732) 
nan

>  <Ligand Efficiency LE>  (732) 
nan

>  <Ligand Efficiency LLE>  (732) 
nan

>  <Ligand Efficiency SEI>  (732) 
nan

>  <ALogP>  (732) 
4.11

>  <Assay Organism>  (732) 
nan

>  <Assay Tissue ChEMBL ID>  (732) 
nan

>  <Assay Tissue Name>  (732) 
nan

>  <Assay Cell Type>  (732) 
nan

>  <Assay Subcellular Fraction>  (732) 
nan

>  <Organism Tax ID>  (732) 
9606

>  <BAO Format ID>  (732) 
BAO_0000019

>  <Published Type>  (732) 
nan

>  <Published Relation>  (732) 
nan

>  <Published Value>  (732) 
nan

>  <Published Units>  (732) 
nan

>  <Canonical Smiles>  (732) 
CN1c2ccc(N)cc2C(c3ccccc3)c4cc(N)ccc14

>  <Data Validity Comment>  (732) 
nan

>  <Document Journal>  (732) 
nan

>  <Document Year>  (732) 
nan

>  <SRC ID>  (732) 
7

>  <UO Units>  (732) 
UO_0000065

>  <Potential Duplicate>  (732) 
False

>  <Class>  (732) 
1

$$$$

     RDKit          2D

 22 24  0  0  0  0  0  0  0  0999 V2000
   -7.8997   12.1775    0.0000 Cl  0  0  0  0  0  0  0  0  0  0  0  0
   -6.7850   11.1738    0.0000 C   0  0  0  0  0  0  0  0  0  0  0  0
   -5.3584   11.6374    0.0000 C   0  0  0  0  0  0  0  0  0  0  0  0
   -4.2437   10.6337    0.0000 C   0  0  0  0  0  0  0  0  0  0  0  0
   -4.5556    9.1664    0.0000 C   0  0  0  0  0  0  0  0  0  0  0  0
   -3.4408    8.1628    0.0000 C   0  0  0  0  0  0  0  0  0  0  0  0
   -3.7527    6.6955    0.0000 N   0  0  0  0  0  0  0  0  0  0  0  0
   -2.6380    5.6918    0.0000 C   0  0  0  0  0  0  0  0  0  0  0  0
   -1.2114    6.1554    0.0000 O   0  0  0  0  0  0  0  0  0  0  0  0
   -2.9499    4.2246    0.0000 N   0  0  0  0  0  0  0  0  0  0  0  0
   -1.8351    3.2209    0.0000 C   0  0  0  0  0  0  0  0  0  0  0  0
   -0.4086    3.6844    0.0000 C   0  0  0  0  0  0  0  0  0  0  0  0
    0.7062    2.6807    0.0000 C   0  0  0  0  0  0  0  0  0  0  0  0
    0.3943    1.2135    0.0000 C   0  0  0  0  0  0  0  0  0  0  0  0
    1.2760    0.0000    0.0000 N   0  0  0  0  0  0  0  0  0  0  0  0
    0.3943   -1.2135    0.0000 N   0  0  0  0  0  0  0  0  0  0  0  0
   -1.0323   -0.7500    0.0000 C   0  0  0  0  0  0  0  0  0  0  0  0
   -1.0323    0.7500    0.0000 C   0  0  0  0  0  0  0  0  0  0  0  0
   -2.1470    1.7537    0.0000 C   0  0  0  0  0  0  0  0  0  0  0  0
   -5.9821    8.7029    0.0000 C   0  0  0  0  0  0  0  0  0  0  0  0
   -7.0969    9.7066    0.0000 C   0  0  0  0  0  0  0  0  0  0  0  0
   -8.5234    9.2431    0.0000 Cl  0  0  0  0  0  0  0  0  0  0  0  0
  1  2  1  0
  2  3  2  0
  3  4  1  0
  4  5  2  0
  5  6  1  0
  6  7  1  0
  7  8  1  0
  8  9  2  0
  8 10  1  0
 10 11  1  0
 11 12  2  0
 12 13  1  0
 13 14  2  0
 14 15  1  0
 15 16  1  0
 16 17  2  0
 17 18  1  0
 18 19  2  0
  5 20  1  0
 20 21  2  0
 21 22  1  0
 21  2  1  0
 19 11  1  0
 18 14  1  0
M  END
>  <Molecule>  (733) 
CHEMBL1981782

>  <Standard Type>  (733) 
Ki

>  <Standard Relation>  (733) 
>

>  <Standard Value>  (733) 
1584.89

>  <Standard Units>  (733) 
nM

>  <pChEMBL Value>  (733) 
nan

>  <Comment>  (733) 
inactive

>  <Compound Key>  (733) 
SID103904659

>  <Assay>  (733) 
CHEMBL1963742

>  <Assay Description>  (733) 
PUBCHEM_BIOASSAY: Navigating the Kinome. (Class of assay: other) Panel member name: JAK3

>  <BAO Format>  (733) 
assay format

>  <Target>  (733) 
CHEMBL2148

>  <Target Pref. Name>  (733) 
Tyrosine-protein kinase JAK3

>  <Target Organism>  (733) 
Homo sapiens

>  <Target Type>  (733) 
SINGLE PROTEIN

>  <Document>  (733) 
CHEMBL1201862

>  <Source>  (733) 
PubChem BioAssays

>  <Max Phase>  (733) 
0

>  <#Ro5 Violations>  (733) 
0

>  <Molecular Weight>  (733) 
335.19

>  <Ligand Efficiency BEI>  (733) 
nan

>  <Ligand Efficiency LE>  (733) 
nan

>  <Ligand Efficiency LLE>  (733) 
nan

>  <Ligand Efficiency SEI>  (733) 
nan

>  <ALogP>  (733) 
4.19

>  <Assay Organism>  (733) 
nan

>  <Assay Tissue ChEMBL ID>  (733) 
nan

>  <Assay Tissue Name>  (733) 
nan

>  <Assay Cell Type>  (733) 
nan

>  <Assay Subcellular Fraction>  (733) 
nan

>  <Organism Tax ID>  (733) 
9606

>  <BAO Format ID>  (733) 
BAO_0000019

>  <Published Type>  (733) 
nan

>  <Published Relation>  (733) 
nan

>  <Published Value>  (733) 
nan

>  <Published Units>  (733) 
nan

>  <Canonical Smiles>  (733) 
Clc1ccc(CNC(=O)Nc2ccc3[nH]ncc3c2)cc1Cl

>  <Data Validity Comment>  (733) 
nan

>  <Document Journal>  (733) 
nan

>  <Document Year>  (733) 
nan

>  <SRC ID>  (733) 
7

>  <UO Units>  (733) 
UO_0000065

>  <Potential Duplicate>  (733) 
False

>  <Class>  (733) 
0

$$$$

     RDKit          2D

 26 29  0  0  0  0  0  0  0  0999 V2000
    3.0000   -0.0000    0.0000 C   0  0  0  0  0  0  0  0  0  0  0  0
    3.7500   -1.2990    0.0000 C   0  0  0  0  0  0  0  0  0  0  0  0
    5.2500   -1.2990    0.0000 C   0  0  0  0  0  0  0  0  0  0  0  0
    6.0000   -2.5981    0.0000 C   0  0  0  0  0  0  0  0  0  0  0  0
    7.5000   -2.5981    0.0000 O   0  0  0  0  0  0  0  0  0  0  0  0
    5.2500   -3.8971    0.0000 C   0  0  0  0  0  0  0  0  0  0  0  0
    3.7500   -3.8971    0.0000 C   0  0  0  0  0  0  0  0  0  0  0  0
    3.0000   -2.5981    0.0000 C   0  0  0  0  0  0  0  0  0  0  0  0
    1.5000   -2.5981    0.0000 N   0  0  0  0  0  0  0  0  0  0  0  0
    0.7500   -1.2990    0.0000 C   0  0  0  0  0  0  0  0  0  0  0  0
    1.5000    0.0000    0.0000 C   0  0  0  0  0  0  0  0  0  0  0  0
    0.7500    1.2990    0.0000 C   0  0  0  0  0  0  0  0  0  0  0  0
    1.5000    2.5981    0.0000 Cl  0  0  0  0  0  0  0  0  0  0  0  0
   -0.7500    1.2990    0.0000 C   0  0  0  0  0  0  0  0  0  0  0  0
   -1.5000    0.0000    0.0000 C   0  0  0  0  0  0  0  0  0  0  0  0
   -0.7500   -1.2990    0.0000 C   0  0  0  0  0  0  0  0  0  0  0  0
   -1.5000   -2.5981    0.0000 C   0  0  0  0  0  0  0  0  0  0  0  0
   -3.0000   -2.5981    0.0000 O   0  0  0  0  0  0  0  0  0  0  0  0
   -0.7500   -3.8971    0.0000 C   0  0  0  0  0  0  0  0  0  0  0  0
   -1.5000   -5.1962    0.0000 C   0  0  0  0  0  0  0  0  0  0  0  0
   -3.0000   -5.1962    0.0000 N   0  0  0  0  0  0  0  0  0  0  0  0
   -0.7500   -6.4952    0.0000 N   0  0  0  0  0  0  0  0  0  0  0  0
    0.7500   -6.4952    0.0000 C   0  0  0  0  0  0  0  0  0  0  0  0
    1.5000   -7.7942    0.0000 N   0  0  0  0  0  0  0  0  0  0  0  0
    1.5000   -5.1962    0.0000 N   0  0  0  0  0  0  0  0  0  0  0  0
    0.7500   -3.8971    0.0000 C   0  0  0  0  0  0  0  0  0  0  0  0
  1  2  1  0
  2  3  2  0
  3  4  1  0
  4  5  1  0
  4  6  2  0
  6  7  1  0
  7  8  2  0
  8  9  1  0
  9 10  1  0
 10 11  2  0
 11 12  1  0
 12 13  1  0
 12 14  2  0
 14 15  1  0
 15 16  2  0
 16 17  1  0
 17 18  2  0
 17 19  1  0
 19 20  2  0
 20 21  1  0
 20 22  1  0
 22 23  2  0
 23 24  1  0
 23 25  1  0
 25 26  2  0
  8  2  1  0
 26  9  1  0
 16 10  1  0
 26 19  1  0
M  END
>  <Molecule>  (734) 
CHEMBL1995592

>  <Standard Type>  (734) 
Ki

>  <Standard Relation>  (734) 
=

>  <Standard Value>  (734) 
1258.93

>  <Standard Units>  (734) 
nM

>  <pChEMBL Value>  (734) 
5.9

>  <Comment>  (734) 
active

>  <Compound Key>  (734) 
SID103905641

>  <Assay>  (734) 
CHEMBL1963742

>  <Assay Description>  (734) 
PUBCHEM_BIOASSAY: Navigating the Kinome. (Class of assay: other) Panel member name: JAK3

>  <BAO Format>  (734) 
assay format

>  <Target>  (734) 
CHEMBL2148

>  <Target Pref. Name>  (734) 
Tyrosine-protein kinase JAK3

>  <Target Organism>  (734) 
Homo sapiens

>  <Target Type>  (734) 
SINGLE PROTEIN

>  <Document>  (734) 
CHEMBL1201862

>  <Source>  (734) 
PubChem BioAssays

>  <Max Phase>  (734) 
0

>  <#Ro5 Violations>  (734) 
0

>  <Molecular Weight>  (734) 
367.8

>  <Ligand Efficiency BEI>  (734) 
nan

>  <Ligand Efficiency LE>  (734) 
nan

>  <Ligand Efficiency LLE>  (734) 
nan

>  <Ligand Efficiency SEI>  (734) 
nan

>  <ALogP>  (734) 
2.77

>  <Assay Organism>  (734) 
nan

>  <Assay Tissue ChEMBL ID>  (734) 
nan

>  <Assay Tissue Name>  (734) 
nan

>  <Assay Cell Type>  (734) 
nan

>  <Assay Subcellular Fraction>  (734) 
nan

>  <Organism Tax ID>  (734) 
9606

>  <BAO Format ID>  (734) 
BAO_0000019

>  <Published Type>  (734) 
nan

>  <Published Relation>  (734) 
nan

>  <Published Value>  (734) 
nan

>  <Published Units>  (734) 
nan

>  <Canonical Smiles>  (734) 
Cc1cc(O)ccc1N2c3cc(Cl)ccc3C(=O)c4c(N)nc(N)nc24

>  <Data Validity Comment>  (734) 
nan

>  <Document Journal>  (734) 
nan

>  <Document Year>  (734) 
nan

>  <SRC ID>  (734) 
7

>  <UO Units>  (734) 
UO_0000065

>  <Potential Duplicate>  (734) 
False

>  <Class>  (734) 
1

$$$$

     RDKit          2D

 15 17  0  0  0  0  0  0  0  0999 V2000
    3.0000    0.0000    0.0000 Cl  0  0  0  0  0  0  0  0  0  0  0  0
    1.5000    0.0000    0.0000 C   0  0  0  0  0  0  0  0  0  0  0  0
    0.7500   -1.2990    0.0000 C   0  0  0  0  0  0  0  0  0  0  0  0
   -0.7500   -1.2990    0.0000 C   0  0  0  0  0  0  0  0  0  0  0  0
   -1.5000    0.0000    0.0000 C   0  0  0  0  0  0  0  0  0  0  0  0
   -2.9672    0.3119    0.0000 O   0  0  0  0  0  0  0  0  0  0  0  0
   -3.1240    1.8037    0.0000 C   0  0  0  0  0  0  0  0  0  0  0  0
   -4.3375    2.6853    0.0000 C   0  0  0  0  0  0  0  0  0  0  0  0
   -5.7079    2.0752    0.0000 O   0  0  0  0  0  0  0  0  0  0  0  0
   -4.1807    4.1771    0.0000 N   0  0  0  0  0  0  0  0  0  0  0  0
   -2.8104    4.7872    0.0000 C   0  0  0  0  0  0  0  0  0  0  0  0
   -1.5969    3.9055    0.0000 N   0  0  0  0  0  0  0  0  0  0  0  0
   -1.7537    2.4138    0.0000 C   0  0  0  0  0  0  0  0  0  0  0  0
   -0.7500    1.2990    0.0000 C   0  0  0  0  0  0  0  0  0  0  0  0
    0.7500    1.2990    0.0000 C   0  0  0  0  0  0  0  0  0  0  0  0
  1  2  1  0
  2  3  2  0
  3  4  1  0
  4  5  2  0
  5  6  1  0
  6  7  1  0
  7  8  1  0
  8  9  2  0
  8 10  1  0
 10 11  1  0
 11 12  2  0
 12 13  1  0
 13 14  1  0
 14 15  2  0
 15  2  1  0
 14  5  1  0
 13  7  2  0
M  END
>  <Molecule>  (735) 
CHEMBL1992323

>  <Standard Type>  (735) 
Ki

>  <Standard Relation>  (735) 
>

>  <Standard Value>  (735) 
1584.89

>  <Standard Units>  (735) 
nM

>  <pChEMBL Value>  (735) 
nan

>  <Comment>  (735) 
inactive

>  <Compound Key>  (735) 
SID103904797

>  <Assay>  (735) 
CHEMBL1963742

>  <Assay Description>  (735) 
PUBCHEM_BIOASSAY: Navigating the Kinome. (Class of assay: other) Panel member name: JAK3

>  <BAO Format>  (735) 
assay format

>  <Target>  (735) 
CHEMBL2148

>  <Target Pref. Name>  (735) 
Tyrosine-protein kinase JAK3

>  <Target Organism>  (735) 
Homo sapiens

>  <Target Type>  (735) 
SINGLE PROTEIN

>  <Document>  (735) 
CHEMBL1201862

>  <Source>  (735) 
PubChem BioAssays

>  <Max Phase>  (735) 
0

>  <#Ro5 Violations>  (735) 
0

>  <Molecular Weight>  (735) 
220.62

>  <Ligand Efficiency BEI>  (735) 
nan

>  <Ligand Efficiency LE>  (735) 
nan

>  <Ligand Efficiency LLE>  (735) 
nan

>  <Ligand Efficiency SEI>  (735) 
nan

>  <ALogP>  (735) 
2.32

>  <Assay Organism>  (735) 
nan

>  <Assay Tissue ChEMBL ID>  (735) 
nan

>  <Assay Tissue Name>  (735) 
nan

>  <Assay Cell Type>  (735) 
nan

>  <Assay Subcellular Fraction>  (735) 
nan

>  <Organism Tax ID>  (735) 
9606

>  <BAO Format ID>  (735) 
BAO_0000019

>  <Published Type>  (735) 
nan

>  <Published Relation>  (735) 
nan

>  <Published Value>  (735) 
nan

>  <Published Units>  (735) 
nan

>  <Canonical Smiles>  (735) 
Clc1ccc2oc3C(=O)NC=Nc3c2c1

>  <Data Validity Comment>  (735) 
nan

>  <Document Journal>  (735) 
nan

>  <Document Year>  (735) 
nan

>  <SRC ID>  (735) 
7

>  <UO Units>  (735) 
UO_0000065

>  <Potential Duplicate>  (735) 
False

>  <Class>  (735) 
0

$$$$

     RDKit          2D

 18 20  0  0  0  0  0  0  0  0999 V2000
    3.7500   -1.2990    0.0000 C   0  0  0  0  0  0  0  0  0  0  0  0
    3.0000    0.0000    0.0000 O   0  0  0  0  0  0  0  0  0  0  0  0
    1.5000    0.0000    0.0000 C   0  0  0  0  0  0  0  0  0  0  0  0
    0.7500   -1.2990    0.0000 C   0  0  0  0  0  0  0  0  0  0  0  0
   -0.7500   -1.2990    0.0000 C   0  0  0  0  0  0  0  0  0  0  0  0
   -1.5000    0.0000    0.0000 C   0  0  0  0  0  0  0  0  0  0  0  0
   -2.9672    0.3119    0.0000 N   0  0  0  0  0  0  0  0  0  0  0  0
   -3.1240    1.8037    0.0000 C   0  0  0  0  0  0  0  0  0  0  0  0
   -4.4231    2.5537    0.0000 O   0  0  0  0  0  0  0  0  0  0  0  0
   -1.7537    2.4138    0.0000 C   0  0  0  0  0  0  0  0  0  0  0  0
   -1.4418    3.8810    0.0000 C   0  0  0  0  0  0  0  0  0  0  0  0
   -2.5565    4.8847    0.0000 C   0  0  0  0  0  0  0  0  0  0  0  0
   -4.0238    4.5728    0.0000 C   0  0  0  0  0  0  0  0  0  0  0  0
   -4.7738    5.8718    0.0000 N   0  0  0  0  0  0  0  0  0  0  0  0
   -3.7701    6.9866    0.0000 C   0  0  0  0  0  0  0  0  0  0  0  0
   -2.3998    6.3765    0.0000 N   0  0  0  0  0  0  0  0  0  0  0  0
   -0.7500    1.2990    0.0000 C   0  0  0  0  0  0  0  0  0  0  0  0
    0.7500    1.2990    0.0000 C   0  0  0  0  0  0  0  0  0  0  0  0
  1  2  1  0
  2  3  1  0
  3  4  2  0
  4  5  1  0
  5  6  2  0
  6  7  1  0
  7  8  1  0
  8  9  2  0
  8 10  1  0
 10 11  2  3
 11 12  1  0
 12 13  2  0
 13 14  1  0
 14 15  1  0
 15 16  2  0
 10 17  1  0
 17 18  2  0
 18  3  1  0
 17  6  1  0
 16 12  1  0
M  END
>  <Molecule>  (736) 
CHEMBL2002649

>  <Standard Type>  (736) 
Ki

>  <Standard Relation>  (736) 
=

>  <Standard Value>  (736) 
501.19

>  <Standard Units>  (736) 
nM

>  <pChEMBL Value>  (736) 
6.3

>  <Comment>  (736) 
active

>  <Compound Key>  (736) 
SID103905117

>  <Assay>  (736) 
CHEMBL1963742

>  <Assay Description>  (736) 
PUBCHEM_BIOASSAY: Navigating the Kinome. (Class of assay: other) Panel member name: JAK3

>  <BAO Format>  (736) 
assay format

>  <Target>  (736) 
CHEMBL2148

>  <Target Pref. Name>  (736) 
Tyrosine-protein kinase JAK3

>  <Target Organism>  (736) 
Homo sapiens

>  <Target Type>  (736) 
SINGLE PROTEIN

>  <Document>  (736) 
CHEMBL1201862

>  <Source>  (736) 
PubChem BioAssays

>  <Max Phase>  (736) 
0

>  <#Ro5 Violations>  (736) 
0

>  <Molecular Weight>  (736) 
241.25

>  <Ligand Efficiency BEI>  (736) 
nan

>  <Ligand Efficiency LE>  (736) 
nan

>  <Ligand Efficiency LLE>  (736) 
nan

>  <Ligand Efficiency SEI>  (736) 
nan

>  <ALogP>  (736) 
1.91

>  <Assay Organism>  (736) 
nan

>  <Assay Tissue ChEMBL ID>  (736) 
nan

>  <Assay Tissue Name>  (736) 
nan

>  <Assay Cell Type>  (736) 
nan

>  <Assay Subcellular Fraction>  (736) 
nan

>  <Organism Tax ID>  (736) 
9606

>  <BAO Format ID>  (736) 
BAO_0000019

>  <Published Type>  (736) 
nan

>  <Published Relation>  (736) 
nan

>  <Published Value>  (736) 
nan

>  <Published Units>  (736) 
nan

>  <Canonical Smiles>  (736) 
COc1ccc2NC(=O)C(=Cc3c[nH]cn3)c2c1

>  <Data Validity Comment>  (736) 
nan

>  <Document Journal>  (736) 
nan

>  <Document Year>  (736) 
nan

>  <SRC ID>  (736) 
7

>  <UO Units>  (736) 
UO_0000065

>  <Potential Duplicate>  (736) 
False

>  <Class>  (736) 
1

$$$$

     RDKit          2D

 19 21  0  0  0  0  0  0  0  0999 V2000
   -5.7221   -1.8037    0.0000 N   0  0  0  0  0  0  0  0  0  0  0  0
   -4.4231   -2.5537    0.0000 C   0  0  0  0  0  0  0  0  0  0  0  0
   -4.4231   -4.0537    0.0000 O   0  0  0  0  0  0  0  0  0  0  0  0
   -3.1240   -1.8037    0.0000 C   0  0  0  0  0  0  0  0  0  0  0  0
   -1.7537   -2.4138    0.0000 C   0  0  0  0  0  0  0  0  0  0  0  0
   -0.7500   -1.2990    0.0000 C   0  0  0  0  0  0  0  0  0  0  0  0
    0.7500   -1.2990    0.0000 C   0  0  0  0  0  0  0  0  0  0  0  0
    1.5000    0.0000    0.0000 C   0  0  0  0  0  0  0  0  0  0  0  0
    0.7500    1.2990    0.0000 N   0  0  0  0  0  0  0  0  0  0  0  0
   -0.7500    1.2990    0.0000 C   0  0  0  0  0  0  0  0  0  0  0  0
   -1.5000    0.0000    0.0000 C   0  0  0  0  0  0  0  0  0  0  0  0
   -2.9672   -0.3119    0.0000 S   0  0  0  0  0  0  0  0  0  0  0  0
    1.5000   -2.5981    0.0000 C   0  0  0  0  0  0  0  0  0  0  0  0
    0.7500   -3.8971    0.0000 C   0  0  0  0  0  0  0  0  0  0  0  0
    1.5000   -5.1962    0.0000 C   0  0  0  0  0  0  0  0  0  0  0  0
    3.0000   -5.1962    0.0000 C   0  0  0  0  0  0  0  0  0  0  0  0
    3.7500   -6.4952    0.0000 Br  0  0  0  0  0  0  0  0  0  0  0  0
    3.7500   -3.8971    0.0000 C   0  0  0  0  0  0  0  0  0  0  0  0
    3.0000   -2.5981    0.0000 C   0  0  0  0  0  0  0  0  0  0  0  0
  1  2  1  0
  2  3  2  0
  2  4  1  0
  4  5  2  0
  5  6  1  0
  6  7  2  0
  7  8  1  0
  8  9  2  0
  9 10  1  0
 10 11  2  0
 11 12  1  0
  7 13  1  0
 13 14  2  0
 14 15  1  0
 15 16  2  0
 16 17  1  0
 16 18  1  0
 18 19  2  0
 12  4  1  0
 11  6  1  0
 19 13  1  0
M  END
>  <Molecule>  (737) 
CHEMBL1978195

>  <Standard Type>  (737) 
Ki

>  <Standard Relation>  (737) 
>

>  <Standard Value>  (737) 
5011.87

>  <Standard Units>  (737) 
nM

>  <pChEMBL Value>  (737) 
nan

>  <Comment>  (737) 
inactive

>  <Compound Key>  (737) 
SID103904986

>  <Assay>  (737) 
CHEMBL1963742

>  <Assay Description>  (737) 
PUBCHEM_BIOASSAY: Navigating the Kinome. (Class of assay: other) Panel member name: JAK3

>  <BAO Format>  (737) 
assay format

>  <Target>  (737) 
CHEMBL2148

>  <Target Pref. Name>  (737) 
Tyrosine-protein kinase JAK3

>  <Target Organism>  (737) 
Homo sapiens

>  <Target Type>  (737) 
SINGLE PROTEIN

>  <Document>  (737) 
CHEMBL1201862

>  <Source>  (737) 
PubChem BioAssays

>  <Max Phase>  (737) 
0

>  <#Ro5 Violations>  (737) 
0

>  <Molecular Weight>  (737) 
333.21

>  <Ligand Efficiency BEI>  (737) 
nan

>  <Ligand Efficiency LE>  (737) 
nan

>  <Ligand Efficiency LLE>  (737) 
nan

>  <Ligand Efficiency SEI>  (737) 
nan

>  <ALogP>  (737) 
3.82

>  <Assay Organism>  (737) 
nan

>  <Assay Tissue ChEMBL ID>  (737) 
nan

>  <Assay Tissue Name>  (737) 
nan

>  <Assay Cell Type>  (737) 
nan

>  <Assay Subcellular Fraction>  (737) 
nan

>  <Organism Tax ID>  (737) 
9606

>  <BAO Format ID>  (737) 
BAO_0000019

>  <Published Type>  (737) 
nan

>  <Published Relation>  (737) 
nan

>  <Published Value>  (737) 
nan

>  <Published Units>  (737) 
nan

>  <Canonical Smiles>  (737) 
NC(=O)c1cc2c(cncc2s1)c3ccc(Br)cc3

>  <Data Validity Comment>  (737) 
nan

>  <Document Journal>  (737) 
nan

>  <Document Year>  (737) 
nan

>  <SRC ID>  (737) 
7

>  <UO Units>  (737) 
UO_0000065

>  <Potential Duplicate>  (737) 
False

>  <Class>  (737) 
0

$$$$

     RDKit          2D

 32 35  0  0  0  0  0  0  0  0999 V2000
    0.5190  -10.0770    0.0000 Cl  0  0  0  0  0  0  0  0  0  0  0  0
   -0.4162   -8.9042    0.0000 C   0  0  0  0  0  0  0  0  0  0  0  0
    0.1318   -7.5079    0.0000 C   0  0  0  0  0  0  0  0  0  0  0  0
   -0.8034   -6.3352    0.0000 C   0  0  0  0  0  0  0  0  0  0  0  0
    0.4359   -5.4902    0.0000 N   0  0  0  0  0  0  0  0  0  0  0  0
    1.1859   -4.1912    0.0000 C   0  0  0  0  0  0  0  0  0  0  0  0
    2.6193   -4.6333    0.0000 O   0  0  0  0  0  0  0  0  0  0  0  0
    1.2980   -2.6953    0.0000 N   0  0  0  0  0  0  0  0  0  0  0  0
    0.7500   -1.2990    0.0000 C   0  0  0  0  0  0  0  0  0  0  0  0
    1.5000    0.0000    0.0000 C   0  0  0  0  0  0  0  0  0  0  0  0
    0.7500    1.2990    0.0000 N   0  0  0  0  0  0  0  0  0  0  0  0
   -0.7500    1.2990    0.0000 C   0  0  0  0  0  0  0  0  0  0  0  0
   -1.5000    2.5981    0.0000 C   0  0  0  0  0  0  0  0  0  0  0  0
   -2.2500    3.8971    0.0000 N   0  0  0  0  0  0  0  0  0  0  0  0
   -1.5000    0.0000    0.0000 C   0  0  0  0  0  0  0  0  0  0  0  0
   -3.2662   -0.0602    0.0000 O   0  0  0  0  0  0  0  0  0  0  0  0
   -4.5055   -0.9052    0.0000 C   0  0  0  0  0  0  0  0  0  0  0  0
   -5.2555   -2.2042    0.0000 C   0  0  0  0  0  0  0  0  0  0  0  0
   -5.3676   -3.7000    0.0000 C   0  0  0  0  0  0  0  0  0  0  0  0
   -4.8196   -5.0963    0.0000 C   0  0  0  0  0  0  0  0  0  0  0  0
   -3.7200   -6.1166    0.0000 O   0  0  0  0  0  0  0  0  0  0  0  0
   -2.2867   -6.5587    0.0000 C   0  0  0  0  0  0  0  0  0  0  0  0
   -2.8347   -7.9550    0.0000 C   0  0  0  0  0  0  0  0  0  0  0  0
   -1.8995   -9.1278    0.0000 C   0  0  0  0  0  0  0  0  0  0  0  0
   -2.4475  -10.5241    0.0000 N   0  0  0  0  0  0  0  0  0  0  0  0
   -3.9307  -10.7477    0.0000 C   0  0  0  0  0  0  0  0  0  0  0  0
   -4.4787  -12.1440    0.0000 C   0  0  0  0  0  0  0  0  0  0  0  0
   -3.6712  -13.4081    0.0000 C   0  0  0  0  0  0  0  0  0  0  0  0
   -4.6239  -14.5667    0.0000 N   0  0  0  0  0  0  0  0  0  0  0  0
   -6.0202  -14.0187    0.0000 C   0  0  0  0  0  0  0  0  0  0  0  0
   -5.9305  -12.5214    0.0000 S   0  0  0  0  0  0  0  0  0  0  0  0
   -0.7500   -1.2990    0.0000 N   0  0  0  0  0  0  0  0  0  0  0  0
  1  2  1  0
  2  3  2  0
  3  4  1  0
  4  5  1  0
  5  6  1  0
  6  7  2  0
  6  8  1  0
  8  9  1  0
  9 10  2  0
 10 11  1  0
 11 12  2  0
 12 13  1  0
 13 14  3  0
 12 15  1  0
 15 16  1  0
 16 17  1  0
 17 18  1  0
 18 19  1  0
 19 20  1  0
 20 21  1  0
 21 22  1  0
 22 23  1  0
 23 24  2  0
 24 25  1  0
 25 26  1  0
 26 27  1  0
 27 28  2  0
 28 29  1  0
 29 30  2  0
 30 31  1  0
 15 32  2  0
 24  2  1  0
 22  4  2  0
 32  9  1  0
 31 27  1  0
M  END
>  <Molecule>  (738) 
CHEMBL248757

>  <Standard Type>  (738) 
Ki

>  <Standard Relation>  (738) 
>

>  <Standard Value>  (738) 
1584.89

>  <Standard Units>  (738) 
nM

>  <pChEMBL Value>  (738) 
nan

>  <Comment>  (738) 
inactive

>  <Compound Key>  (738) 
SID103905151

>  <Assay>  (738) 
CHEMBL1963742

>  <Assay Description>  (738) 
PUBCHEM_BIOASSAY: Navigating the Kinome. (Class of assay: other) Panel member name: JAK3

>  <BAO Format>  (738) 
assay format

>  <Target>  (738) 
CHEMBL2148

>  <Target Pref. Name>  (738) 
Tyrosine-protein kinase JAK3

>  <Target Organism>  (738) 
Homo sapiens

>  <Target Type>  (738) 
SINGLE PROTEIN

>  <Document>  (738) 
CHEMBL1201862

>  <Source>  (738) 
PubChem BioAssays

>  <Max Phase>  (738) 
0

>  <#Ro5 Violations>  (738) 
0

>  <Molecular Weight>  (738) 
471.93

>  <Ligand Efficiency BEI>  (738) 
nan

>  <Ligand Efficiency LE>  (738) 
nan

>  <Ligand Efficiency LLE>  (738) 
nan

>  <Ligand Efficiency SEI>  (738) 
nan

>  <ALogP>  (738) 
4.27

>  <Assay Organism>  (738) 
nan

>  <Assay Tissue ChEMBL ID>  (738) 
nan

>  <Assay Tissue Name>  (738) 
nan

>  <Assay Cell Type>  (738) 
nan

>  <Assay Subcellular Fraction>  (738) 
nan

>  <Organism Tax ID>  (738) 
9606

>  <BAO Format ID>  (738) 
BAO_0000019

>  <Published Type>  (738) 
nan

>  <Published Relation>  (738) 
nan

>  <Published Value>  (738) 
nan

>  <Published Units>  (738) 
nan

>  <Canonical Smiles>  (738) 
Clc1cc2NC(=O)Nc3cnc(C#N)c(OCCCCOc2cc1NCc4cncs4)n3

>  <Data Validity Comment>  (738) 
nan

>  <Document Journal>  (738) 
nan

>  <Document Year>  (738) 
nan

>  <SRC ID>  (738) 
7

>  <UO Units>  (738) 
UO_0000065

>  <Potential Duplicate>  (738) 
False

>  <Class>  (738) 
0

$$$$

     RDKit          2D

 14 15  0  0  0  0  0  0  0  0999 V2000
   -3.7500   -3.8971    0.0000 C   0  0  0  0  0  0  0  0  0  0  0  0
   -3.0000   -2.5981    0.0000 N   0  0  0  0  0  0  0  0  0  0  0  0
   -3.7500   -1.2990    0.0000 C   0  0  0  0  0  0  0  0  0  0  0  0
   -1.5000   -2.5981    0.0000 C   0  0  0  0  0  0  0  0  0  0  0  0
   -0.7500   -3.8971    0.0000 C   0  0  0  0  0  0  0  0  0  0  0  0
    0.7500   -3.8971    0.0000 C   0  0  0  0  0  0  0  0  0  0  0  0
    1.5000   -2.5981    0.0000 C   0  0  0  0  0  0  0  0  0  0  0  0
    3.0000   -2.5981    0.0000 N   0  0  0  0  0  0  0  0  0  0  0  0
    0.7500   -1.2990    0.0000 C   0  0  0  0  0  0  0  0  0  0  0  0
    1.5000    0.0000    0.0000 C   0  0  0  0  0  0  0  0  0  0  0  0
    0.7500    1.2990    0.0000 C   0  0  0  0  0  0  0  0  0  0  0  0
   -0.7500    1.2990    0.0000 C   0  0  0  0  0  0  0  0  0  0  0  0
   -1.5000    0.0000    0.0000 C   0  0  0  0  0  0  0  0  0  0  0  0
   -0.7500   -1.2990    0.0000 C   0  0  0  0  0  0  0  0  0  0  0  0
  1  2  1  0
  2  3  1  0
  2  4  1  0
  4  5  2  0
  5  6  1  0
  6  7  2  0
  7  8  1  0
  7  9  1  0
  9 10  2  0
 10 11  1  0
 11 12  2  0
 12 13  1  0
 13 14  2  0
 14  4  1  0
 14  9  1  0
M  END
>  <Molecule>  (739) 
CHEMBL1998253

>  <Standard Type>  (739) 
Ki

>  <Standard Relation>  (739) 
>

>  <Standard Value>  (739) 
5011.87

>  <Standard Units>  (739) 
nM

>  <pChEMBL Value>  (739) 
nan

>  <Comment>  (739) 
inactive

>  <Compound Key>  (739) 
SID103905249

>  <Assay>  (739) 
CHEMBL1963742

>  <Assay Description>  (739) 
PUBCHEM_BIOASSAY: Navigating the Kinome. (Class of assay: other) Panel member name: JAK3

>  <BAO Format>  (739) 
assay format

>  <Target>  (739) 
CHEMBL2148

>  <Target Pref. Name>  (739) 
Tyrosine-protein kinase JAK3

>  <Target Organism>  (739) 
Homo sapiens

>  <Target Type>  (739) 
SINGLE PROTEIN

>  <Document>  (739) 
CHEMBL1201862

>  <Source>  (739) 
PubChem BioAssays

>  <Max Phase>  (739) 
0

>  <#Ro5 Violations>  (739) 
0

>  <Molecular Weight>  (739) 
186.26

>  <Ligand Efficiency BEI>  (739) 
nan

>  <Ligand Efficiency LE>  (739) 
nan

>  <Ligand Efficiency LLE>  (739) 
nan

>  <Ligand Efficiency SEI>  (739) 
nan

>  <ALogP>  (739) 
2.49

>  <Assay Organism>  (739) 
nan

>  <Assay Tissue ChEMBL ID>  (739) 
nan

>  <Assay Tissue Name>  (739) 
nan

>  <Assay Cell Type>  (739) 
nan

>  <Assay Subcellular Fraction>  (739) 
nan

>  <Organism Tax ID>  (739) 
9606

>  <BAO Format ID>  (739) 
BAO_0000019

>  <Published Type>  (739) 
nan

>  <Published Relation>  (739) 
nan

>  <Published Value>  (739) 
nan

>  <Published Units>  (739) 
nan

>  <Canonical Smiles>  (739) 
CN(C)c1ccc(N)c2ccccc12

>  <Data Validity Comment>  (739) 
nan

>  <Document Journal>  (739) 
nan

>  <Document Year>  (739) 
nan

>  <SRC ID>  (739) 
7

>  <UO Units>  (739) 
UO_0000065

>  <Potential Duplicate>  (739) 
False

>  <Class>  (739) 
0

$$$$

     RDKit          2D

 18 19  0  0  0  0  0  0  0  0999 V2000
    6.0000   -2.5981    0.0000 N   0  0  0  0  0  0  0  0  0  0  0  0
    5.2500   -1.2990    0.0000 C   0  0  0  0  0  0  0  0  0  0  0  0
    3.7500   -1.2990    0.0000 C   0  0  0  0  0  0  0  0  0  0  0  0
    3.0000    0.0000    0.0000 O   0  0  0  0  0  0  0  0  0  0  0  0
    1.5000    0.0000    0.0000 C   0  0  0  0  0  0  0  0  0  0  0  0
    0.7500   -1.2990    0.0000 C   0  0  0  0  0  0  0  0  0  0  0  0
   -0.7500   -1.2990    0.0000 N   0  0  0  0  0  0  0  0  0  0  0  0
   -1.5000    0.0000    0.0000 C   0  0  0  0  0  0  0  0  0  0  0  0
   -0.7500    1.2990    0.0000 C   0  0  0  0  0  0  0  0  0  0  0  0
   -1.5000    2.5981    0.0000 C   0  0  0  0  0  0  0  0  0  0  0  0
   -0.7500    3.8971    0.0000 C   0  0  0  0  0  0  0  0  0  0  0  0
   -1.5000    5.1962    0.0000 C   0  0  0  0  0  0  0  0  0  0  0  0
   -0.7500    6.4952    0.0000 C   0  0  0  0  0  0  0  0  0  0  0  0
   -1.5000    7.7942    0.0000 C   0  0  0  0  0  0  0  0  0  0  0  0
   -3.0000    7.7942    0.0000 N   0  0  0  0  0  0  0  0  0  0  0  0
   -3.7500    6.4952    0.0000 C   0  0  0  0  0  0  0  0  0  0  0  0
   -3.0000    5.1962    0.0000 C   0  0  0  0  0  0  0  0  0  0  0  0
    0.7500    1.2990    0.0000 C   0  0  0  0  0  0  0  0  0  0  0  0
  1  2  1  0
  2  3  1  0
  3  4  1  0
  4  5  1  0
  5  6  2  0
  6  7  1  0
  7  8  2  0
  8  9  1  0
  9 10  1  0
 10 11  2  3
 11 12  1  0
 12 13  2  0
 13 14  1  0
 14 15  2  0
 15 16  1  0
 16 17  2  0
  9 18  2  0
 18  5  1  0
 17 12  1  0
M  END
>  <Molecule>  (740) 
CHEMBL1989518

>  <Standard Type>  (740) 
Ki

>  <Standard Relation>  (740) 
>

>  <Standard Value>  (740) 
1584.89

>  <Standard Units>  (740) 
nM

>  <pChEMBL Value>  (740) 
nan

>  <Comment>  (740) 
inactive

>  <Compound Key>  (740) 
SID103904971

>  <Assay>  (740) 
CHEMBL1963742

>  <Assay Description>  (740) 
PUBCHEM_BIOASSAY: Navigating the Kinome. (Class of assay: other) Panel member name: JAK3

>  <BAO Format>  (740) 
assay format

>  <Target>  (740) 
CHEMBL2148

>  <Target Pref. Name>  (740) 
Tyrosine-protein kinase JAK3

>  <Target Organism>  (740) 
Homo sapiens

>  <Target Type>  (740) 
SINGLE PROTEIN

>  <Document>  (740) 
CHEMBL1201862

>  <Source>  (740) 
PubChem BioAssays

>  <Max Phase>  (740) 
0

>  <#Ro5 Violations>  (740) 
0

>  <Molecular Weight>  (740) 
241.29

>  <Ligand Efficiency BEI>  (740) 
nan

>  <Ligand Efficiency LE>  (740) 
nan

>  <Ligand Efficiency LLE>  (740) 
nan

>  <Ligand Efficiency SEI>  (740) 
nan

>  <ALogP>  (740) 
1.98

>  <Assay Organism>  (740) 
nan

>  <Assay Tissue ChEMBL ID>  (740) 
nan

>  <Assay Tissue Name>  (740) 
nan

>  <Assay Cell Type>  (740) 
nan

>  <Assay Subcellular Fraction>  (740) 
nan

>  <Organism Tax ID>  (740) 
9606

>  <BAO Format ID>  (740) 
BAO_0000019

>  <Published Type>  (740) 
nan

>  <Published Relation>  (740) 
nan

>  <Published Value>  (740) 
nan

>  <Published Units>  (740) 
nan

>  <Canonical Smiles>  (740) 
NCCOc1cncc(C=Cc2ccncc2)c1

>  <Data Validity Comment>  (740) 
nan

>  <Document Journal>  (740) 
nan

>  <Document Year>  (740) 
nan

>  <SRC ID>  (740) 
7

>  <UO Units>  (740) 
UO_0000065

>  <Potential Duplicate>  (740) 
False

>  <Class>  (740) 
0

$$$$

     RDKit          2D

 19 21  0  0  0  0  0  0  0  0999 V2000
   -5.7221   -1.8037    0.0000 N   0  0  0  0  0  0  0  0  0  0  0  0
   -4.4231   -2.5537    0.0000 C   0  0  0  0  0  0  0  0  0  0  0  0
   -4.4231   -4.0537    0.0000 O   0  0  0  0  0  0  0  0  0  0  0  0
   -3.1240   -1.8037    0.0000 C   0  0  0  0  0  0  0  0  0  0  0  0
   -1.7537   -2.4138    0.0000 C   0  0  0  0  0  0  0  0  0  0  0  0
   -0.7500   -1.2990    0.0000 C   0  0  0  0  0  0  0  0  0  0  0  0
    0.7500   -1.2990    0.0000 C   0  0  0  0  0  0  0  0  0  0  0  0
    1.5000    0.0000    0.0000 C   0  0  0  0  0  0  0  0  0  0  0  0
    0.7500    1.2990    0.0000 N   0  0  0  0  0  0  0  0  0  0  0  0
   -0.7500    1.2990    0.0000 C   0  0  0  0  0  0  0  0  0  0  0  0
   -1.5000    0.0000    0.0000 C   0  0  0  0  0  0  0  0  0  0  0  0
   -2.9672   -0.3119    0.0000 S   0  0  0  0  0  0  0  0  0  0  0  0
    1.5000   -2.5981    0.0000 C   0  0  0  0  0  0  0  0  0  0  0  0
    0.7500   -3.8971    0.0000 C   0  0  0  0  0  0  0  0  0  0  0  0
    1.5000   -5.1962    0.0000 C   0  0  0  0  0  0  0  0  0  0  0  0
    3.0000   -5.1962    0.0000 C   0  0  0  0  0  0  0  0  0  0  0  0
    3.7500   -3.8971    0.0000 C   0  0  0  0  0  0  0  0  0  0  0  0
    5.2500   -3.8971    0.0000 F   0  0  0  0  0  0  0  0  0  0  0  0
    3.0000   -2.5981    0.0000 C   0  0  0  0  0  0  0  0  0  0  0  0
  1  2  1  0
  2  3  2  0
  2  4  1  0
  4  5  2  0
  5  6  1  0
  6  7  2  0
  7  8  1  0
  8  9  2  0
  9 10  1  0
 10 11  2  0
 11 12  1  0
  7 13  1  0
 13 14  2  0
 14 15  1  0
 15 16  2  0
 16 17  1  0
 17 18  1  0
 17 19  2  0
 12  4  1  0
 11  6  1  0
 19 13  1  0
M  END
>  <Molecule>  (741) 
CHEMBL1971017

>  <Standard Type>  (741) 
Ki

>  <Standard Relation>  (741) 
=

>  <Standard Value>  (741) 
1584.89

>  <Standard Units>  (741) 
nM

>  <pChEMBL Value>  (741) 
5.8

>  <Comment>  (741) 
active

>  <Compound Key>  (741) 
SID103905042

>  <Assay>  (741) 
CHEMBL1963742

>  <Assay Description>  (741) 
PUBCHEM_BIOASSAY: Navigating the Kinome. (Class of assay: other) Panel member name: JAK3

>  <BAO Format>  (741) 
assay format

>  <Target>  (741) 
CHEMBL2148

>  <Target Pref. Name>  (741) 
Tyrosine-protein kinase JAK3

>  <Target Organism>  (741) 
Homo sapiens

>  <Target Type>  (741) 
SINGLE PROTEIN

>  <Document>  (741) 
CHEMBL1201862

>  <Source>  (741) 
PubChem BioAssays

>  <Max Phase>  (741) 
0

>  <#Ro5 Violations>  (741) 
0

>  <Molecular Weight>  (741) 
272.3

>  <Ligand Efficiency BEI>  (741) 
nan

>  <Ligand Efficiency LE>  (741) 
nan

>  <Ligand Efficiency LLE>  (741) 
nan

>  <Ligand Efficiency SEI>  (741) 
nan

>  <ALogP>  (741) 
3.2

>  <Assay Organism>  (741) 
nan

>  <Assay Tissue ChEMBL ID>  (741) 
nan

>  <Assay Tissue Name>  (741) 
nan

>  <Assay Cell Type>  (741) 
nan

>  <Assay Subcellular Fraction>  (741) 
nan

>  <Organism Tax ID>  (741) 
9606

>  <BAO Format ID>  (741) 
BAO_0000019

>  <Published Type>  (741) 
nan

>  <Published Relation>  (741) 
nan

>  <Published Value>  (741) 
nan

>  <Published Units>  (741) 
nan

>  <Canonical Smiles>  (741) 
NC(=O)c1cc2c(cncc2s1)c3cccc(F)c3

>  <Data Validity Comment>  (741) 
nan

>  <Document Journal>  (741) 
nan

>  <Document Year>  (741) 
nan

>  <SRC ID>  (741) 
7

>  <UO Units>  (741) 
UO_0000065

>  <Potential Duplicate>  (741) 
False

>  <Class>  (741) 
1

$$$$

     RDKit          2D

 23 25  0  0  0  0  0  0  0  0999 V2000
    6.0000   -7.7942    0.0000 C   0  0  0  0  0  0  0  0  0  0  0  0
    4.5000   -7.7942    0.0000 C   0  0  0  0  0  0  0  0  0  0  0  0
    3.7500   -6.4952    0.0000 S   0  0  0  0  0  0  0  0  0  0  0  0
    5.0490   -5.7452    0.0000 O   0  0  0  0  0  0  0  0  0  0  0  0
    2.4510   -7.2452    0.0000 O   0  0  0  0  0  0  0  0  0  0  0  0
    3.0000   -5.1962    0.0000 C   0  0  0  0  0  0  0  0  0  0  0  0
    1.5000   -5.1962    0.0000 C   0  0  0  0  0  0  0  0  0  0  0  0
    0.7500   -3.8971    0.0000 C   0  0  0  0  0  0  0  0  0  0  0  0
    1.5000   -2.5981    0.0000 C   0  0  0  0  0  0  0  0  0  0  0  0
    3.0000   -2.5981    0.0000 C   0  0  0  0  0  0  0  0  0  0  0  0
    3.7500   -3.8971    0.0000 C   0  0  0  0  0  0  0  0  0  0  0  0
    0.7500   -1.2990    0.0000 C   0  0  0  0  0  0  0  0  0  0  0  0
    1.5000    0.0000    0.0000 C   0  0  0  0  0  0  0  0  0  0  0  0
    0.7500    1.2990    0.0000 N   0  0  0  0  0  0  0  0  0  0  0  0
   -0.7500    1.2990    0.0000 C   0  0  0  0  0  0  0  0  0  0  0  0
   -1.5000    0.0000    0.0000 C   0  0  0  0  0  0  0  0  0  0  0  0
   -2.9672   -0.3119    0.0000 S   0  0  0  0  0  0  0  0  0  0  0  0
   -3.1240   -1.8037    0.0000 C   0  0  0  0  0  0  0  0  0  0  0  0
   -1.7537   -2.4138    0.0000 C   0  0  0  0  0  0  0  0  0  0  0  0
   -0.7500   -1.2990    0.0000 C   0  0  0  0  0  0  0  0  0  0  0  0
   -4.4231   -2.5537    0.0000 C   0  0  0  0  0  0  0  0  0  0  0  0
   -4.4231   -4.0537    0.0000 O   0  0  0  0  0  0  0  0  0  0  0  0
   -5.7221   -1.8037    0.0000 N   0  0  0  0  0  0  0  0  0  0  0  0
  1  2  1  0
  2  3  1  0
  3  4  2  0
  3  5  2  0
  3  6  1  0
  6  7  2  0
  7  8  1  0
  8  9  2  0
  9 10  1  0
 10 11  2  0
  9 12  1  0
 12 13  2  0
 13 14  1  0
 14 15  2  0
 15 16  1  0
 16 17  1  0
 17 18  1  0
 18 19  2  0
 19 20  1  0
 18 21  1  0
 21 22  2  0
 21 23  1  0
 11  6  1  0
 20 12  1  0
 20 16  2  0
M  END
>  <Molecule>  (742) 
CHEMBL2000104

>  <Standard Type>  (742) 
Ki

>  <Standard Relation>  (742) 
>

>  <Standard Value>  (742) 
1584.89

>  <Standard Units>  (742) 
nM

>  <pChEMBL Value>  (742) 
nan

>  <Comment>  (742) 
inactive

>  <Compound Key>  (742) 
SID103905051

>  <Assay>  (742) 
CHEMBL1963742

>  <Assay Description>  (742) 
PUBCHEM_BIOASSAY: Navigating the Kinome. (Class of assay: other) Panel member name: JAK3

>  <BAO Format>  (742) 
assay format

>  <Target>  (742) 
CHEMBL2148

>  <Target Pref. Name>  (742) 
Tyrosine-protein kinase JAK3

>  <Target Organism>  (742) 
Homo sapiens

>  <Target Type>  (742) 
SINGLE PROTEIN

>  <Document>  (742) 
CHEMBL1201862

>  <Source>  (742) 
PubChem BioAssays

>  <Max Phase>  (742) 
0

>  <#Ro5 Violations>  (742) 
0

>  <Molecular Weight>  (742) 
346.43

>  <Ligand Efficiency BEI>  (742) 
nan

>  <Ligand Efficiency LE>  (742) 
nan

>  <Ligand Efficiency LLE>  (742) 
nan

>  <Ligand Efficiency SEI>  (742) 
nan

>  <ALogP>  (742) 
2.86

>  <Assay Organism>  (742) 
nan

>  <Assay Tissue ChEMBL ID>  (742) 
nan

>  <Assay Tissue Name>  (742) 
nan

>  <Assay Cell Type>  (742) 
nan

>  <Assay Subcellular Fraction>  (742) 
nan

>  <Organism Tax ID>  (742) 
9606

>  <BAO Format ID>  (742) 
BAO_0000019

>  <Published Type>  (742) 
nan

>  <Published Relation>  (742) 
nan

>  <Published Value>  (742) 
nan

>  <Published Units>  (742) 
nan

>  <Canonical Smiles>  (742) 
CCS(=O)(=O)c1ccc(cc1)c2cncc3sc(cc23)C(=O)N

>  <Data Validity Comment>  (742) 
nan

>  <Document Journal>  (742) 
nan

>  <Document Year>  (742) 
nan

>  <SRC ID>  (742) 
7

>  <UO Units>  (742) 
UO_0000065

>  <Potential Duplicate>  (742) 
False

>  <Class>  (742) 
0

$$$$

     RDKit          2D

 25 29  0  0  0  0  0  0  0  0999 V2000
   -5.9843   -0.1781    0.0000 C   0  0  0  0  0  0  0  0  0  0  0  0
   -4.5577    0.2855    0.0000 C   0  0  0  0  0  0  0  0  0  0  0  0
   -3.4430   -0.7182    0.0000 C   0  0  0  0  0  0  0  0  0  0  0  0
   -3.7548   -2.1855    0.0000 C   0  0  0  0  0  0  0  0  0  0  0  0
   -5.1814   -2.6490    0.0000 C   0  0  0  0  0  0  0  0  0  0  0  0
   -6.2961   -1.6453    0.0000 C   0  0  0  0  0  0  0  0  0  0  0  0
   -2.6401   -3.1891    0.0000 N   0  0  0  0  0  0  0  0  0  0  0  0
   -1.2135   -2.7256    0.0000 C   0  0  0  0  0  0  0  0  0  0  0  0
   -0.0000   -3.6073    0.0000 C   0  0  0  0  0  0  0  0  0  0  0  0
    1.2135   -2.7256    0.0000 N   0  0  0  0  0  0  0  0  0  0  0  0
    0.7500   -1.2990    0.0000 C   0  0  0  0  0  0  0  0  0  0  0  0
    1.5000    0.0000    0.0000 N   0  0  0  0  0  0  0  0  0  0  0  0
    0.7500    1.2990    0.0000 C   0  0  0  0  0  0  0  0  0  0  0  0
   -0.7500    1.2990    0.0000 C   0  0  0  0  0  0  0  0  0  0  0  0
   -1.5000    0.0000    0.0000 C   0  0  0  0  0  0  0  0  0  0  0  0
   -0.7500   -1.2990    0.0000 N   0  0  0  0  0  0  0  0  0  0  0  0
   -0.0000   -5.1073    0.0000 C   0  0  0  0  0  0  0  0  0  0  0  0
    1.2990   -5.8573    0.0000 C   0  0  0  0  0  0  0  0  0  0  0  0
    1.2990   -7.3573    0.0000 C   0  0  0  0  0  0  0  0  0  0  0  0
    0.0000   -8.1073    0.0000 C   0  0  0  0  0  0  0  0  0  0  0  0
   -0.3119   -9.5745    0.0000 N   0  0  0  0  0  0  0  0  0  0  0  0
   -1.8037   -9.7313    0.0000 N   0  0  0  0  0  0  0  0  0  0  0  0
   -2.4138   -8.3610    0.0000 C   0  0  0  0  0  0  0  0  0  0  0  0
   -1.2990   -7.3573    0.0000 C   0  0  0  0  0  0  0  0  0  0  0  0
   -1.2990   -5.8573    0.0000 C   0  0  0  0  0  0  0  0  0  0  0  0
  1  2  1  0
  2  3  1  0
  3  4  1  0
  4  5  1  0
  5  6  1  0
  4  7  1  0
  7  8  1  0
  8  9  2  0
  9 10  1  0
 10 11  2  0
 11 12  1  0
 12 13  2  0
 13 14  1  0
 14 15  2  0
 15 16  1  0
  9 17  1  0
 17 18  2  0
 18 19  1  0
 19 20  2  0
 20 21  1  0
 21 22  1  0
 22 23  2  0
 23 24  1  0
 24 25  2  0
  6  1  1  0
 16  8  1  0
 16 11  1  0
 25 17  1  0
 24 20  1  0
M  END
>  <Molecule>  (743) 
CHEMBL1682552

>  <Standard Type>  (743) 
Ki

>  <Standard Relation>  (743) 
>

>  <Standard Value>  (743) 
1584.89

>  <Standard Units>  (743) 
nM

>  <pChEMBL Value>  (743) 
nan

>  <Comment>  (743) 
inactive

>  <Compound Key>  (743) 
SID103904509

>  <Assay>  (743) 
CHEMBL1963742

>  <Assay Description>  (743) 
PUBCHEM_BIOASSAY: Navigating the Kinome. (Class of assay: other) Panel member name: JAK3

>  <BAO Format>  (743) 
assay format

>  <Target>  (743) 
CHEMBL2148

>  <Target Pref. Name>  (743) 
Tyrosine-protein kinase JAK3

>  <Target Organism>  (743) 
Homo sapiens

>  <Target Type>  (743) 
SINGLE PROTEIN

>  <Document>  (743) 
CHEMBL1201862

>  <Source>  (743) 
PubChem BioAssays

>  <Max Phase>  (743) 
0

>  <#Ro5 Violations>  (743) 
0

>  <Molecular Weight>  (743) 
332.41

>  <Ligand Efficiency BEI>  (743) 
nan

>  <Ligand Efficiency LE>  (743) 
nan

>  <Ligand Efficiency LLE>  (743) 
nan

>  <Ligand Efficiency SEI>  (743) 
nan

>  <ALogP>  (743) 
4.02

>  <Assay Organism>  (743) 
nan

>  <Assay Tissue ChEMBL ID>  (743) 
nan

>  <Assay Tissue Name>  (743) 
nan

>  <Assay Cell Type>  (743) 
nan

>  <Assay Subcellular Fraction>  (743) 
nan

>  <Organism Tax ID>  (743) 
9606

>  <BAO Format ID>  (743) 
BAO_0000019

>  <Published Type>  (743) 
nan

>  <Published Relation>  (743) 
nan

>  <Published Value>  (743) 
nan

>  <Published Units>  (743) 
nan

>  <Canonical Smiles>  (743) 
C1CCC(CC1)Nc2c(nc3ncccn23)c4ccc5[nH]ncc5c4

>  <Data Validity Comment>  (743) 
nan

>  <Document Journal>  (743) 
nan

>  <Document Year>  (743) 
nan

>  <SRC ID>  (743) 
7

>  <UO Units>  (743) 
UO_0000065

>  <Potential Duplicate>  (743) 
False

>  <Class>  (743) 
0

$$$$

     RDKit          2D

 19 20  0  0  0  0  0  0  0  0999 V2000
   -7.5917   -5.5881    0.0000 C   0  0  0  0  0  0  0  0  0  0  0  0
   -6.2213   -4.9780    0.0000 C   0  0  0  0  0  0  0  0  0  0  0  0
   -5.0078   -5.8597    0.0000 C   0  0  0  0  0  0  0  0  0  0  0  0
   -3.6375   -5.2496    0.0000 C   0  0  0  0  0  0  0  0  0  0  0  0
   -2.4240   -6.1312    0.0000 N   0  0  0  0  0  0  0  0  0  0  0  0
   -1.0537   -5.5211    0.0000 C   0  0  0  0  0  0  0  0  0  0  0  0
    0.2454   -6.2711    0.0000 N   0  0  0  0  0  0  0  0  0  0  0  0
    1.3601   -5.2674    0.0000 C   0  0  0  0  0  0  0  0  0  0  0  0
    2.8273   -5.5793    0.0000 N   0  0  0  0  0  0  0  0  0  0  0  0
    0.7500   -3.8971    0.0000 C   0  0  0  0  0  0  0  0  0  0  0  0
   -0.7418   -4.0539    0.0000 S   0  0  0  0  0  0  0  0  0  0  0  0
    1.5000   -2.5981    0.0000 C   0  0  0  0  0  0  0  0  0  0  0  0
    3.0000   -2.5981    0.0000 O   0  0  0  0  0  0  0  0  0  0  0  0
    0.7500   -1.2990    0.0000 C   0  0  0  0  0  0  0  0  0  0  0  0
    1.5000    0.0000    0.0000 C   0  0  0  0  0  0  0  0  0  0  0  0
    0.7500    1.2990    0.0000 C   0  0  0  0  0  0  0  0  0  0  0  0
   -0.7500    1.2990    0.0000 C   0  0  0  0  0  0  0  0  0  0  0  0
   -1.5000    0.0000    0.0000 C   0  0  0  0  0  0  0  0  0  0  0  0
   -0.7500   -1.2990    0.0000 C   0  0  0  0  0  0  0  0  0  0  0  0
  1  2  1  0
  2  3  1  0
  3  4  1  0
  4  5  1  0
  5  6  1  0
  6  7  2  0
  7  8  1  0
  8  9  1  0
  8 10  2  0
 10 11  1  0
 10 12  1  0
 12 13  2  0
 12 14  1  0
 14 15  2  0
 15 16  1  0
 16 17  2  0
 17 18  1  0
 18 19  2  0
 11  6  1  0
 19 14  1  0
M  END
>  <Molecule>  (744) 
CHEMBL2007479

>  <Standard Type>  (744) 
Ki

>  <Standard Relation>  (744) 
>

>  <Standard Value>  (744) 
5011.87

>  <Standard Units>  (744) 
nM

>  <pChEMBL Value>  (744) 
nan

>  <Comment>  (744) 
inactive

>  <Compound Key>  (744) 
SID103905435

>  <Assay>  (744) 
CHEMBL1963742

>  <Assay Description>  (744) 
PUBCHEM_BIOASSAY: Navigating the Kinome. (Class of assay: other) Panel member name: JAK3

>  <BAO Format>  (744) 
assay format

>  <Target>  (744) 
CHEMBL2148

>  <Target Pref. Name>  (744) 
Tyrosine-protein kinase JAK3

>  <Target Organism>  (744) 
Homo sapiens

>  <Target Type>  (744) 
SINGLE PROTEIN

>  <Document>  (744) 
CHEMBL1201862

>  <Source>  (744) 
PubChem BioAssays

>  <Max Phase>  (744) 
0

>  <#Ro5 Violations>  (744) 
0

>  <Molecular Weight>  (744) 
275.38

>  <Ligand Efficiency BEI>  (744) 
nan

>  <Ligand Efficiency LE>  (744) 
nan

>  <Ligand Efficiency LLE>  (744) 
nan

>  <Ligand Efficiency SEI>  (744) 
nan

>  <ALogP>  (744) 
3.17

>  <Assay Organism>  (744) 
nan

>  <Assay Tissue ChEMBL ID>  (744) 
nan

>  <Assay Tissue Name>  (744) 
nan

>  <Assay Cell Type>  (744) 
nan

>  <Assay Subcellular Fraction>  (744) 
nan

>  <Organism Tax ID>  (744) 
9606

>  <BAO Format ID>  (744) 
BAO_0000019

>  <Published Type>  (744) 
nan

>  <Published Relation>  (744) 
nan

>  <Published Value>  (744) 
nan

>  <Published Units>  (744) 
nan

>  <Canonical Smiles>  (744) 
CCCCNc1nc(N)c(s1)C(=O)c2ccccc2

>  <Data Validity Comment>  (744) 
nan

>  <Document Journal>  (744) 
nan

>  <Document Year>  (744) 
nan

>  <SRC ID>  (744) 
7

>  <UO Units>  (744) 
UO_0000065

>  <Potential Duplicate>  (744) 
False

>  <Class>  (744) 
0

$$$$

     RDKit          2D

 23 25  0  0  0  0  0  0  0  0999 V2000
   -6.1170   -9.6487    0.0000 C   0  0  0  0  0  0  0  0  0  0  0  0
   -4.6904   -9.1852    0.0000 C   0  0  0  0  0  0  0  0  0  0  0  0
   -4.3786   -7.7180    0.0000 C   0  0  0  0  0  0  0  0  0  0  0  0
   -2.9520   -7.2544    0.0000 C   0  0  0  0  0  0  0  0  0  0  0  0
   -1.8373   -8.2581    0.0000 O   0  0  0  0  0  0  0  0  0  0  0  0
   -2.6401   -5.7872    0.0000 N   0  0  0  0  0  0  0  0  0  0  0  0
   -1.2135   -5.3237    0.0000 C   0  0  0  0  0  0  0  0  0  0  0  0
   -0.0000   -6.2054    0.0000 N   0  0  0  0  0  0  0  0  0  0  0  0
    1.2135   -5.3237    0.0000 N   0  0  0  0  0  0  0  0  0  0  0  0
    2.6401   -5.7872    0.0000 C   0  0  0  0  0  0  0  0  0  0  0  0
    3.7548   -4.7835    0.0000 O   0  0  0  0  0  0  0  0  0  0  0  0
    2.9520   -7.2544    0.0000 C   0  0  0  0  0  0  0  0  0  0  0  0
    4.3786   -7.7180    0.0000 C   0  0  0  0  0  0  0  0  0  0  0  0
    0.7500   -3.8971    0.0000 C   0  0  0  0  0  0  0  0  0  0  0  0
    1.5000   -2.5981    0.0000 N   0  0  0  0  0  0  0  0  0  0  0  0
    0.7500   -1.2990    0.0000 C   0  0  0  0  0  0  0  0  0  0  0  0
    1.5000    0.0000    0.0000 C   0  0  0  0  0  0  0  0  0  0  0  0
    0.7500    1.2990    0.0000 C   0  0  0  0  0  0  0  0  0  0  0  0
   -0.7500    1.2990    0.0000 C   0  0  0  0  0  0  0  0  0  0  0  0
   -1.5000    0.0000    0.0000 C   0  0  0  0  0  0  0  0  0  0  0  0
   -0.7500   -1.2990    0.0000 C   0  0  0  0  0  0  0  0  0  0  0  0
   -1.5000   -2.5981    0.0000 C   0  0  0  0  0  0  0  0  0  0  0  0
   -0.7500   -3.8971    0.0000 C   0  0  0  0  0  0  0  0  0  0  0  0
  1  2  1  0
  2  3  1  0
  3  4  1  0
  4  5  2  0
  4  6  1  0
  6  7  1  0
  7  8  2  0
  8  9  1  0
  9 10  1  0
 10 11  2  0
 10 12  1  0
 12 13  1  0
  9 14  1  0
 14 15  2  0
 15 16  1  0
 16 17  2  0
 17 18  1  0
 18 19  2  0
 19 20  1  0
 20 21  2  0
 21 22  1  0
 22 23  2  0
 23  7  1  0
 23 14  1  0
 21 16  1  0
M  END
>  <Molecule>  (745) 
CHEMBL1970913

>  <Standard Type>  (745) 
Ki

>  <Standard Relation>  (745) 
>

>  <Standard Value>  (745) 
1584.89

>  <Standard Units>  (745) 
nM

>  <pChEMBL Value>  (745) 
nan

>  <Comment>  (745) 
inactive

>  <Compound Key>  (745) 
SID103905383

>  <Assay>  (745) 
CHEMBL1963742

>  <Assay Description>  (745) 
PUBCHEM_BIOASSAY: Navigating the Kinome. (Class of assay: other) Panel member name: JAK3

>  <BAO Format>  (745) 
assay format

>  <Target>  (745) 
CHEMBL2148

>  <Target Pref. Name>  (745) 
Tyrosine-protein kinase JAK3

>  <Target Organism>  (745) 
Homo sapiens

>  <Target Type>  (745) 
SINGLE PROTEIN

>  <Document>  (745) 
CHEMBL1201862

>  <Source>  (745) 
PubChem BioAssays

>  <Max Phase>  (745) 
0

>  <#Ro5 Violations>  (745) 
0

>  <Molecular Weight>  (745) 
310.36

>  <Ligand Efficiency BEI>  (745) 
nan

>  <Ligand Efficiency LE>  (745) 
nan

>  <Ligand Efficiency LLE>  (745) 
nan

>  <Ligand Efficiency SEI>  (745) 
nan

>  <ALogP>  (745) 
3.37

>  <Assay Organism>  (745) 
nan

>  <Assay Tissue ChEMBL ID>  (745) 
nan

>  <Assay Tissue Name>  (745) 
nan

>  <Assay Cell Type>  (745) 
nan

>  <Assay Subcellular Fraction>  (745) 
nan

>  <Organism Tax ID>  (745) 
9606

>  <BAO Format ID>  (745) 
BAO_0000019

>  <Published Type>  (745) 
nan

>  <Published Relation>  (745) 
nan

>  <Published Value>  (745) 
nan

>  <Published Units>  (745) 
nan

>  <Canonical Smiles>  (745) 
CCCC(=O)Nc1nn(C(=O)CC)c2nc3ccccc3cc12

>  <Data Validity Comment>  (745) 
nan

>  <Document Journal>  (745) 
nan

>  <Document Year>  (745) 
nan

>  <SRC ID>  (745) 
7

>  <UO Units>  (745) 
UO_0000065

>  <Potential Duplicate>  (745) 
False

>  <Class>  (745) 
0

$$$$

     RDKit          2D

 40 43  0  0  0  0  0  0  0  0999 V2000
    5.9610   -3.6669    0.0000 C   0  0  0  0  0  0  0  0  0  0  0  0
    4.4938   -3.3551    0.0000 C   0  0  0  0  0  0  0  0  0  0  0  0
    4.0302   -1.9285    0.0000 C   0  0  0  0  0  0  0  0  0  0  0  0
    3.4901   -4.4698    0.0000 C   0  0  0  0  0  0  0  0  0  0  0  0
    2.0229   -4.1579    0.0000 C   0  0  0  0  0  0  0  0  0  0  0  0
    1.0192   -5.2726    0.0000 N   0  0  0  0  0  0  0  0  0  0  0  0
   -0.4481   -4.9608    0.0000 C   0  0  0  0  0  0  0  0  0  0  0  0
   -0.9116   -3.5342    0.0000 O   0  0  0  0  0  0  0  0  0  0  0  0
   -1.4518   -6.0755    0.0000 C   0  0  0  0  0  0  0  0  0  0  0  0
   -0.9882   -7.5021    0.0000 C   0  0  0  0  0  0  0  0  0  0  0  0
   -1.9919   -8.6168    0.0000 C   0  0  0  0  0  0  0  0  0  0  0  0
   -3.4591   -8.3049    0.0000 C   0  0  0  0  0  0  0  0  0  0  0  0
   -3.9227   -6.8783    0.0000 C   0  0  0  0  0  0  0  0  0  0  0  0
   -2.9190   -5.7636    0.0000 C   0  0  0  0  0  0  0  0  0  0  0  0
   -5.3899   -6.5665    0.0000 N   0  0  0  0  0  0  0  0  0  0  0  0
   -6.5046   -7.5702    0.0000 N   0  0  0  0  0  0  0  0  0  0  0  0
   -7.8037   -6.8202    0.0000 C   0  0  0  0  0  0  0  0  0  0  0  0
   -7.4918   -5.3529    0.0000 C   0  0  0  0  0  0  0  0  0  0  0  0
   -6.0000   -5.1962    0.0000 C   0  0  0  0  0  0  0  0  0  0  0  0
   -5.2500   -3.8971    0.0000 N   0  0  0  0  0  0  0  0  0  0  0  0
   -6.0000   -2.5981    0.0000 C   0  0  0  0  0  0  0  0  0  0  0  0
   -7.5000   -2.5981    0.0000 O   0  0  0  0  0  0  0  0  0  0  0  0
   -5.2500   -1.2990    0.0000 N   0  0  0  0  0  0  0  0  0  0  0  0
   -6.0000    0.0000    0.0000 C   0  0  0  0  0  0  0  0  0  0  0  0
   -7.5000    0.0000    0.0000 C   0  0  0  0  0  0  0  0  0  0  0  0
   -8.2500    1.2990    0.0000 C   0  0  0  0  0  0  0  0  0  0  0  0
   -7.5000    2.5981    0.0000 C   0  0  0  0  0  0  0  0  0  0  0  0
   -6.0000    2.5981    0.0000 C   0  0  0  0  0  0  0  0  0  0  0  0
   -5.2500    3.8971    0.0000 C   0  0  0  0  0  0  0  0  0  0  0  0
   -3.7500    3.8971    0.0000 C   0  0  0  0  0  0  0  0  0  0  0  0
   -3.0000    2.5981    0.0000 C   0  0  0  0  0  0  0  0  0  0  0  0
   -3.7500    1.2990    0.0000 C   0  0  0  0  0  0  0  0  0  0  0  0
   -5.2500    1.2990    0.0000 C   0  0  0  0  0  0  0  0  0  0  0  0
   -9.1740   -7.4303    0.0000 C   0  0  0  0  0  0  0  0  0  0  0  0
   -9.7841   -6.0600    0.0000 C   0  0  0  0  0  0  0  0  0  0  0  0
   -8.5639   -8.8006    0.0000 C   0  0  0  0  0  0  0  0  0  0  0  0
  -10.5443   -8.0404    0.0000 C   0  0  0  0  0  0  0  0  0  0  0  0
    1.5593   -2.7313    0.0000 C   0  0  0  0  0  0  0  0  0  0  0  0
    0.0921   -2.4195    0.0000 O   0  0  0  0  0  0  0  0  0  0  0  0
    2.5630   -1.6166    0.0000 N   0  0  0  0  0  0  0  0  0  0  0  0
  1  2  1  0
  2  3  1  0
  2  4  1  0
  4  5  1  0
  5  6  1  0
  6  7  1  0
  7  8  2  0
  7  9  1  0
  9 10  2  0
 10 11  1  0
 11 12  2  0
 12 13  1  0
 13 14  2  0
 13 15  1  0
 15 16  1  0
 16 17  2  0
 17 18  1  0
 18 19  2  0
 19 20  1  0
 20 21  1  0
 21 22  2  0
 21 23  1  0
 23 24  1  0
 24 25  2  0
 25 26  1  0
 26 27  2  0
 27 28  1  0
 28 29  2  0
 29 30  1  0
 30 31  2  0
 31 32  1  0
 32 33  2  0
 17 34  1  0
 34 35  1  0
 34 36  1  0
 34 37  1  0
  5 38  1  0
 38 39  2  0
 38 40  1  0
 14  9  1  0
 19 15  1  0
 33 24  1  0
 33 28  1  0
M  END
>  <Molecule>  (746) 
CHEMBL1965469

>  <Standard Type>  (746) 
Ki

>  <Standard Relation>  (746) 
=

>  <Standard Value>  (746) 
5011.87

>  <Standard Units>  (746) 
nM

>  <pChEMBL Value>  (746) 
5.3

>  <Comment>  (746) 
active

>  <Compound Key>  (746) 
SID103904848

>  <Assay>  (746) 
CHEMBL1963742

>  <Assay Description>  (746) 
PUBCHEM_BIOASSAY: Navigating the Kinome. (Class of assay: other) Panel member name: JAK3

>  <BAO Format>  (746) 
assay format

>  <Target>  (746) 
CHEMBL2148

>  <Target Pref. Name>  (746) 
Tyrosine-protein kinase JAK3

>  <Target Organism>  (746) 
Homo sapiens

>  <Target Type>  (746) 
SINGLE PROTEIN

>  <Document>  (746) 
CHEMBL1201862

>  <Source>  (746) 
PubChem BioAssays

>  <Max Phase>  (746) 
0

>  <#Ro5 Violations>  (746) 
2

>  <Molecular Weight>  (746) 
540.67

>  <Ligand Efficiency BEI>  (746) 
nan

>  <Ligand Efficiency LE>  (746) 
nan

>  <Ligand Efficiency LLE>  (746) 
nan

>  <Ligand Efficiency SEI>  (746) 
nan

>  <ALogP>  (746) 
5.6

>  <Assay Organism>  (746) 
nan

>  <Assay Tissue ChEMBL ID>  (746) 
nan

>  <Assay Tissue Name>  (746) 
nan

>  <Assay Cell Type>  (746) 
nan

>  <Assay Subcellular Fraction>  (746) 
nan

>  <Organism Tax ID>  (746) 
9606

>  <BAO Format ID>  (746) 
BAO_0000019

>  <Published Type>  (746) 
nan

>  <Published Relation>  (746) 
nan

>  <Published Value>  (746) 
nan

>  <Published Units>  (746) 
nan

>  <Canonical Smiles>  (746) 
CC(C)CC(NC(=O)c1cccc(c1)n2nc(cc2NC(=O)Nc3cccc4ccccc34)C(C)(C)C)C(=O)N

>  <Data Validity Comment>  (746) 
nan

>  <Document Journal>  (746) 
nan

>  <Document Year>  (746) 
nan

>  <SRC ID>  (746) 
7

>  <UO Units>  (746) 
UO_0000065

>  <Potential Duplicate>  (746) 
False

>  <Class>  (746) 
1

$$$$

     RDKit          2D

 30 34  0  0  0  0  0  0  0  0999 V2000
   -8.6640    5.8606    0.0000 C   0  0  0  0  0  0  0  0  0  0  0  0
   -7.9140    4.5616    0.0000 C   0  0  0  0  0  0  0  0  0  0  0  0
   -6.4140    4.5616    0.0000 N   0  0  0  0  0  0  0  0  0  0  0  0
   -5.6640    3.2626    0.0000 C   0  0  0  0  0  0  0  0  0  0  0  0
   -6.4140    1.9635    0.0000 N   0  0  0  0  0  0  0  0  0  0  0  0
   -5.6640    0.6645    0.0000 C   0  0  0  0  0  0  0  0  0  0  0  0
   -4.1640    0.6645    0.0000 C   0  0  0  0  0  0  0  0  0  0  0  0
   -3.4140    1.9635    0.0000 C   0  0  0  0  0  0  0  0  0  0  0  0
   -4.1640    3.2626    0.0000 N   0  0  0  0  0  0  0  0  0  0  0  0
   -1.9140    1.9635    0.0000 C   0  0  0  0  0  0  0  0  0  0  0  0
   -1.0323    3.1771    0.0000 C   0  0  0  0  0  0  0  0  0  0  0  0
    0.3943    2.7135    0.0000 N   0  0  0  0  0  0  0  0  0  0  0  0
    0.3943    1.2135    0.0000 C   0  0  0  0  0  0  0  0  0  0  0  0
    1.2760    0.0000    0.0000 O   0  0  0  0  0  0  0  0  0  0  0  0
    0.3943   -1.2135    0.0000 C   0  0  0  0  0  0  0  0  0  0  0  0
   -1.0323   -0.7500    0.0000 C   0  0  0  0  0  0  0  0  0  0  0  0
   -1.0323    0.7500    0.0000 N   0  0  0  0  0  0  0  0  0  0  0  0
   -1.4958    4.6036    0.0000 C   0  0  0  0  0  0  0  0  0  0  0  0
   -0.4921    5.7184    0.0000 C   0  0  0  0  0  0  0  0  0  0  0  0
   -0.9556    7.1449    0.0000 C   0  0  0  0  0  0  0  0  0  0  0  0
   -2.4229    7.4568    0.0000 C   0  0  0  0  0  0  0  0  0  0  0  0
   -2.8864    8.8834    0.0000 F   0  0  0  0  0  0  0  0  0  0  0  0
   -3.4266    6.3421    0.0000 C   0  0  0  0  0  0  0  0  0  0  0  0
   -2.9630    4.9155    0.0000 C   0  0  0  0  0  0  0  0  0  0  0  0
   -8.6640    3.2626    0.0000 C   0  0  0  0  0  0  0  0  0  0  0  0
  -10.1640    3.2626    0.0000 C   0  0  0  0  0  0  0  0  0  0  0  0
  -10.9140    1.9635    0.0000 C   0  0  0  0  0  0  0  0  0  0  0  0
  -10.1640    0.6645    0.0000 C   0  0  0  0  0  0  0  0  0  0  0  0
   -8.6640    0.6645    0.0000 C   0  0  0  0  0  0  0  0  0  0  0  0
   -7.9140    1.9635    0.0000 C   0  0  0  0  0  0  0  0  0  0  0  0
  1  2  1  0
  2  3  1  0
  3  4  1  0
  4  5  2  0
  5  6  1  0
  6  7  2  0
  7  8  1  0
  8  9  2  0
  8 10  1  0
 10 11  2  0
 11 12  1  0
 12 13  2  0
 13 14  1  0
 14 15  1  0
 15 16  2  0
 16 17  1  0
 11 18  1  0
 18 19  2  0
 19 20  1  0
 20 21  2  0
 21 22  1  0
 21 23  1  0
 23 24  2  0
  2 25  1  0
 25 26  2  0
 26 27  1  0
 27 28  2  0
 28 29  1  0
 29 30  2  0
  9  4  1  0
 17 10  1  0
 17 13  1  0
 24 18  1  0
 30 25  1  0
M  END
>  <Molecule>  (747) 
CHEMBL1990288

>  <Standard Type>  (747) 
Ki

>  <Standard Relation>  (747) 
>

>  <Standard Value>  (747) 
1584.89

>  <Standard Units>  (747) 
nM

>  <pChEMBL Value>  (747) 
nan

>  <Comment>  (747) 
inactive

>  <Compound Key>  (747) 
SID103904425

>  <Assay>  (747) 
CHEMBL1963742

>  <Assay Description>  (747) 
PUBCHEM_BIOASSAY: Navigating the Kinome. (Class of assay: other) Panel member name: JAK3

>  <BAO Format>  (747) 
assay format

>  <Target>  (747) 
CHEMBL2148

>  <Target Pref. Name>  (747) 
Tyrosine-protein kinase JAK3

>  <Target Organism>  (747) 
Homo sapiens

>  <Target Type>  (747) 
SINGLE PROTEIN

>  <Document>  (747) 
CHEMBL1201862

>  <Source>  (747) 
PubChem BioAssays

>  <Max Phase>  (747) 
0

>  <#Ro5 Violations>  (747) 
1

>  <Molecular Weight>  (747) 
399.43

>  <Ligand Efficiency BEI>  (747) 
nan

>  <Ligand Efficiency LE>  (747) 
nan

>  <Ligand Efficiency LLE>  (747) 
nan

>  <Ligand Efficiency SEI>  (747) 
nan

>  <ALogP>  (747) 
5.36

>  <Assay Organism>  (747) 
nan

>  <Assay Tissue ChEMBL ID>  (747) 
nan

>  <Assay Tissue Name>  (747) 
nan

>  <Assay Cell Type>  (747) 
nan

>  <Assay Subcellular Fraction>  (747) 
nan

>  <Organism Tax ID>  (747) 
9606

>  <BAO Format ID>  (747) 
BAO_0000019

>  <Published Type>  (747) 
nan

>  <Published Relation>  (747) 
nan

>  <Published Value>  (747) 
nan

>  <Published Units>  (747) 
nan

>  <Canonical Smiles>  (747) 
CC(Nc1nccc(n1)c2c(nc3occn23)c4ccc(F)cc4)c5ccccc5

>  <Data Validity Comment>  (747) 
nan

>  <Document Journal>  (747) 
nan

>  <Document Year>  (747) 
nan

>  <SRC ID>  (747) 
7

>  <UO Units>  (747) 
UO_0000065

>  <Potential Duplicate>  (747) 
False

>  <Class>  (747) 
0

$$$$

     RDKit          2D

 34 38  0  0  0  0  0  0  0  0999 V2000
    3.7500  -14.2894    0.0000 C   0  0  0  0  0  0  0  0  0  0  0  0
    3.0000  -12.9904    0.0000 N   0  0  0  0  0  0  0  0  0  0  0  0
    3.7500  -11.6913    0.0000 C   0  0  0  0  0  0  0  0  0  0  0  0
    5.2500  -11.6913    0.0000 O   0  0  0  0  0  0  0  0  0  0  0  0
    3.0000  -10.3923    0.0000 N   0  0  0  0  0  0  0  0  0  0  0  0
    1.5000  -10.3923    0.0000 C   0  0  0  0  0  0  0  0  0  0  0  0
    0.7500   -9.0933    0.0000 C   0  0  0  0  0  0  0  0  0  0  0  0
    1.5000   -7.7942    0.0000 N   0  0  0  0  0  0  0  0  0  0  0  0
    0.7500   -6.4952    0.0000 C   0  0  0  0  0  0  0  0  0  0  0  0
    1.5000   -5.1962    0.0000 C   0  0  0  0  0  0  0  0  0  0  0  0
    0.7500   -3.8971    0.0000 C   0  0  0  0  0  0  0  0  0  0  0  0
    1.5000   -2.5981    0.0000 O   0  0  0  0  0  0  0  0  0  0  0  0
    0.7500   -1.2990    0.0000 C   0  0  0  0  0  0  0  0  0  0  0  0
    1.5000    0.0000    0.0000 C   0  0  0  0  0  0  0  0  0  0  0  0
    0.7500    1.2990    0.0000 C   0  0  0  0  0  0  0  0  0  0  0  0
   -0.7500    1.2990    0.0000 C   0  0  0  0  0  0  0  0  0  0  0  0
   -1.7537    2.4138    0.0000 C   0  0  0  0  0  0  0  0  0  0  0  0
   -3.1240    1.8037    0.0000 C   0  0  0  0  0  0  0  0  0  0  0  0
   -4.5912    2.1155    0.0000 C   0  0  0  0  0  0  0  0  0  0  0  0
   -5.3412    0.8165    0.0000 N   0  0  0  0  0  0  0  0  0  0  0  0
   -4.3375   -0.2982    0.0000 N   0  0  0  0  0  0  0  0  0  0  0  0
   -2.9672    0.3119    0.0000 C   0  0  0  0  0  0  0  0  0  0  0  0
   -1.5000    0.0000    0.0000 C   0  0  0  0  0  0  0  0  0  0  0  0
   -0.7500   -1.2990    0.0000 C   0  0  0  0  0  0  0  0  0  0  0  0
   -5.2013    3.4858    0.0000 C   0  0  0  0  0  0  0  0  0  0  0  0
   -4.3197    4.6994    0.0000 C   0  0  0  0  0  0  0  0  0  0  0  0
   -4.9298    6.0697    0.0000 C   0  0  0  0  0  0  0  0  0  0  0  0
   -6.4216    6.2265    0.0000 C   0  0  0  0  0  0  0  0  0  0  0  0
   -7.3032    5.0129    0.0000 N   0  0  0  0  0  0  0  0  0  0  0  0
   -6.6931    3.6426    0.0000 C   0  0  0  0  0  0  0  0  0  0  0  0
   -7.0317    7.5968    0.0000 C   0  0  0  0  0  0  0  0  0  0  0  0
   -7.6418    8.9671    0.0000 N   0  0  0  0  0  0  0  0  0  0  0  0
    3.0000   -7.7942    0.0000 C   0  0  0  0  0  0  0  0  0  0  0  0
    3.7500   -9.0933    0.0000 C   0  0  0  0  0  0  0  0  0  0  0  0
  1  2  1  0
  2  3  1  0
  3  4  2  0
  3  5  1  0
  5  6  1  0
  6  7  1  0
  7  8  1  0
  8  9  1  0
  9 10  1  0
 10 11  1  0
 11 12  1  0
 12 13  1  0
 13 14  2  0
 14 15  1  0
 15 16  2  0
 16 17  1  0
 17 18  1  0
 18 19  1  0
 19 20  2  0
 20 21  1  0
 21 22  1  0
 22 23  1  0
 23 24  2  0
 19 25  1  0
 25 26  2  0
 26 27  1  0
 27 28  2  0
 28 29  1  0
 29 30  2  0
 28 31  1  0
 31 32  3  0
  8 33  1  0
 33 34  1  0
 34  5  1  0
 24 13  1  0
 23 16  1  0
 22 18  2  0
 30 25  1  0
M  END
>  <Molecule>  (748) 
CHEMBL2001998

>  <Standard Type>  (748) 
Ki

>  <Standard Relation>  (748) 
>

>  <Standard Value>  (748) 
1584.89

>  <Standard Units>  (748) 
nM

>  <pChEMBL Value>  (748) 
nan

>  <Comment>  (748) 
inactive

>  <Compound Key>  (748) 
SID103904816

>  <Assay>  (748) 
CHEMBL1963742

>  <Assay Description>  (748) 
PUBCHEM_BIOASSAY: Navigating the Kinome. (Class of assay: other) Panel member name: JAK3

>  <BAO Format>  (748) 
assay format

>  <Target>  (748) 
CHEMBL2148

>  <Target Pref. Name>  (748) 
Tyrosine-protein kinase JAK3

>  <Target Organism>  (748) 
Homo sapiens

>  <Target Type>  (748) 
SINGLE PROTEIN

>  <Document>  (748) 
CHEMBL1201862

>  <Source>  (748) 
PubChem BioAssays

>  <Max Phase>  (748) 
0

>  <#Ro5 Violations>  (748) 
0

>  <Molecular Weight>  (748) 
457.54

>  <Ligand Efficiency BEI>  (748) 
nan

>  <Ligand Efficiency LE>  (748) 
nan

>  <Ligand Efficiency LLE>  (748) 
nan

>  <Ligand Efficiency SEI>  (748) 
nan

>  <ALogP>  (748) 
2.64

>  <Assay Organism>  (748) 
nan

>  <Assay Tissue ChEMBL ID>  (748) 
nan

>  <Assay Tissue Name>  (748) 
nan

>  <Assay Cell Type>  (748) 
nan

>  <Assay Subcellular Fraction>  (748) 
nan

>  <Organism Tax ID>  (748) 
9606

>  <BAO Format ID>  (748) 
BAO_0000019

>  <Published Type>  (748) 
nan

>  <Published Relation>  (748) 
nan

>  <Published Value>  (748) 
nan

>  <Published Units>  (748) 
nan

>  <Canonical Smiles>  (748) 
CNC(=O)N1CCN(CCCOc2ccc3Cc4c(n[nH]c4c3c2)c5ccc(nc5)C#N)CC1

>  <Data Validity Comment>  (748) 
nan

>  <Document Journal>  (748) 
nan

>  <Document Year>  (748) 
nan

>  <SRC ID>  (748) 
7

>  <UO Units>  (748) 
UO_0000065

>  <Potential Duplicate>  (748) 
False

>  <Class>  (748) 
0

$$$$

     RDKit          2D

 24 28  0  0  0  0  0  0  0  0999 V2000
    3.0000    0.0000    0.0000 N   0  0  0  0  0  0  0  0  0  0  0  0
    1.5000    0.0000    0.0000 C   0  0  0  0  0  0  0  0  0  0  0  0
    0.7500   -1.2990    0.0000 N   0  0  0  0  0  0  0  0  0  0  0  0
   -0.7500   -1.2990    0.0000 C   0  0  0  0  0  0  0  0  0  0  0  0
   -1.5000    0.0000    0.0000 N   0  0  0  0  0  0  0  0  0  0  0  0
   -0.7500    1.2990    0.0000 C   0  0  0  0  0  0  0  0  0  0  0  0
    0.7500    1.2990    0.0000 C   0  0  0  0  0  0  0  0  0  0  0  0
    1.2135    2.7256    0.0000 C   0  0  0  0  0  0  0  0  0  0  0  0
   -0.0000    3.6073    0.0000 N   0  0  0  0  0  0  0  0  0  0  0  0
   -1.2135    2.7256    0.0000 N   0  0  0  0  0  0  0  0  0  0  0  0
   -2.6401    3.1891    0.0000 C   0  0  0  0  0  0  0  0  0  0  0  0
   -3.8536    2.3075    0.0000 C   0  0  0  0  0  0  0  0  0  0  0  0
   -5.0672    3.1891    0.0000 C   0  0  0  0  0  0  0  0  0  0  0  0
   -4.6036    4.6157    0.0000 C   0  0  0  0  0  0  0  0  0  0  0  0
   -3.1036    4.6157    0.0000 C   0  0  0  0  0  0  0  0  0  0  0  0
    2.6401    3.1891    0.0000 C   0  0  0  0  0  0  0  0  0  0  0  0
    3.7548    2.1855    0.0000 C   0  0  0  0  0  0  0  0  0  0  0  0
    5.1814    2.6490    0.0000 N   0  0  0  0  0  0  0  0  0  0  0  0
    5.4933    4.1162    0.0000 C   0  0  0  0  0  0  0  0  0  0  0  0
    6.7923    4.8662    0.0000 N   0  0  0  0  0  0  0  0  0  0  0  0
    6.4805    6.3334    0.0000 C   0  0  0  0  0  0  0  0  0  0  0  0
    4.9887    6.4902    0.0000 C   0  0  0  0  0  0  0  0  0  0  0  0
    4.3786    5.1199    0.0000 C   0  0  0  0  0  0  0  0  0  0  0  0
    2.9520    4.6564    0.0000 C   0  0  0  0  0  0  0  0  0  0  0  0
  1  2  1  0
  2  3  2  0
  3  4  1  0
  4  5  2  0
  5  6  1  0
  6  7  2  0
  7  8  1  0
  8  9  2  0
  9 10  1  0
 10 11  1  0
 11 12  1  0
 12 13  1  0
 13 14  1  0
 14 15  1  0
  8 16  1  0
 16 17  2  0
 17 18  1  0
 18 19  2  0
 19 20  1  0
 20 21  1  0
 21 22  2  0
 22 23  1  0
 23 24  2  0
  7  2  1  0
 10  6  1  0
 15 11  1  0
 24 16  1  0
 23 19  1  0
M  END
>  <Molecule>  (749) 
CHEMBL1081312

>  <Standard Type>  (749) 
Ki

>  <Standard Relation>  (749) 
>

>  <Standard Value>  (749) 
5011.87

>  <Standard Units>  (749) 
nM

>  <pChEMBL Value>  (749) 
nan

>  <Comment>  (749) 
inactive

>  <Compound Key>  (749) 
SID103904782

>  <Assay>  (749) 
CHEMBL1963742

>  <Assay Description>  (749) 
PUBCHEM_BIOASSAY: Navigating the Kinome. (Class of assay: other) Panel member name: JAK3

>  <BAO Format>  (749) 
assay format

>  <Target>  (749) 
CHEMBL2148

>  <Target Pref. Name>  (749) 
Tyrosine-protein kinase JAK3

>  <Target Organism>  (749) 
Homo sapiens

>  <Target Type>  (749) 
SINGLE PROTEIN

>  <Document>  (749) 
CHEMBL1201862

>  <Source>  (749) 
PubChem BioAssays

>  <Max Phase>  (749) 
0

>  <#Ro5 Violations>  (749) 
0

>  <Molecular Weight>  (749) 
319.37

>  <Ligand Efficiency BEI>  (749) 
nan

>  <Ligand Efficiency LE>  (749) 
nan

>  <Ligand Efficiency LLE>  (749) 
nan

>  <Ligand Efficiency SEI>  (749) 
nan

>  <ALogP>  (749) 
3.07

>  <Assay Organism>  (749) 
nan

>  <Assay Tissue ChEMBL ID>  (749) 
nan

>  <Assay Tissue Name>  (749) 
nan

>  <Assay Cell Type>  (749) 
nan

>  <Assay Subcellular Fraction>  (749) 
nan

>  <Organism Tax ID>  (749) 
9606

>  <BAO Format ID>  (749) 
BAO_0000019

>  <Published Type>  (749) 
nan

>  <Published Relation>  (749) 
nan

>  <Published Value>  (749) 
nan

>  <Published Units>  (749) 
nan

>  <Canonical Smiles>  (749) 
Nc1ncnc2c1c(nn2C3CCCC3)c4cnc5[nH]ccc5c4

>  <Data Validity Comment>  (749) 
nan

>  <Document Journal>  (749) 
nan

>  <Document Year>  (749) 
nan

>  <SRC ID>  (749) 
7

>  <UO Units>  (749) 
UO_0000065

>  <Potential Duplicate>  (749) 
False

>  <Class>  (749) 
0

$$$$

     RDKit          2D

 25 28  0  0  0  0  0  0  0  0999 V2000
    3.0000    0.0000    0.0000 O   0  0  0  0  0  0  0  0  0  0  0  0
    1.5000    0.0000    0.0000 C   0  0  0  0  0  0  0  0  0  0  0  0
    0.7500   -1.2990    0.0000 C   0  0  0  0  0  0  0  0  0  0  0  0
   -0.7500   -1.2990    0.0000 C   0  0  0  0  0  0  0  0  0  0  0  0
   -1.5000    0.0000    0.0000 C   0  0  0  0  0  0  0  0  0  0  0  0
   -0.7500    1.2990    0.0000 C   0  0  0  0  0  0  0  0  0  0  0  0
    0.7500    1.2990    0.0000 C   0  0  0  0  0  0  0  0  0  0  0  0
   -3.0000    0.0000    0.0000 C   0  0  0  0  0  0  0  0  0  0  0  0
   -3.8817   -1.2135    0.0000 N   0  0  0  0  0  0  0  0  0  0  0  0
   -5.3083   -0.7500    0.0000 C   0  0  0  0  0  0  0  0  0  0  0  0
   -6.5218   -1.6317    0.0000 C   0  0  0  0  0  0  0  0  0  0  0  0
   -7.8921   -1.0216    0.0000 C   0  0  0  0  0  0  0  0  0  0  0  0
   -9.1056   -1.9033    0.0000 C   0  0  0  0  0  0  0  0  0  0  0  0
   -8.9488   -3.3950    0.0000 C   0  0  0  0  0  0  0  0  0  0  0  0
  -10.1624   -4.2767    0.0000 F   0  0  0  0  0  0  0  0  0  0  0  0
   -7.5785   -4.0051    0.0000 C   0  0  0  0  0  0  0  0  0  0  0  0
   -6.3650   -3.1235    0.0000 C   0  0  0  0  0  0  0  0  0  0  0  0
   -5.3083    0.7500    0.0000 C   0  0  0  0  0  0  0  0  0  0  0  0
   -3.8817    1.2135    0.0000 N   0  0  0  0  0  0  0  0  0  0  0  0
   -6.5218    1.6317    0.0000 C   0  0  0  0  0  0  0  0  0  0  0  0
   -6.3650    3.1235    0.0000 C   0  0  0  0  0  0  0  0  0  0  0  0
   -7.5785    4.0051    0.0000 C   0  0  0  0  0  0  0  0  0  0  0  0
   -8.9488    3.3950    0.0000 N   0  0  0  0  0  0  0  0  0  0  0  0
   -9.1056    1.9033    0.0000 C   0  0  0  0  0  0  0  0  0  0  0  0
   -7.8921    1.0216    0.0000 C   0  0  0  0  0  0  0  0  0  0  0  0
  1  2  1  0
  2  3  2  0
  3  4  1  0
  4  5  2  0
  5  6  1  0
  6  7  2  0
  5  8  1  0
  8  9  2  0
  9 10  1  0
 10 11  1  0
 11 12  2  0
 12 13  1  0
 13 14  2  0
 14 15  1  0
 14 16  1  0
 16 17  2  0
 10 18  2  0
 18 19  1  0
 18 20  1  0
 20 21  2  0
 21 22  1  0
 22 23  2  0
 23 24  1  0
 24 25  2  0
  7  2  1  0
 19  8  1  0
 17 11  1  0
 25 20  1  0
M  END
>  <Molecule>  (750) 
CHEMBL278041

>  <Standard Type>  (750) 
Ki

>  <Standard Relation>  (750) 
>

>  <Standard Value>  (750) 
5011.87

>  <Standard Units>  (750) 
nM

>  <pChEMBL Value>  (750) 
nan

>  <Comment>  (750) 
inactive

>  <Compound Key>  (750) 
SID103905584

>  <Assay>  (750) 
CHEMBL1963742

>  <Assay Description>  (750) 
PUBCHEM_BIOASSAY: Navigating the Kinome. (Class of assay: other) Panel member name: JAK3

>  <BAO Format>  (750) 
assay format

>  <Target>  (750) 
CHEMBL2148

>  <Target Pref. Name>  (750) 
Tyrosine-protein kinase JAK3

>  <Target Organism>  (750) 
Homo sapiens

>  <Target Type>  (750) 
SINGLE PROTEIN

>  <Document>  (750) 
CHEMBL1201862

>  <Source>  (750) 
PubChem BioAssays

>  <Max Phase>  (750) 
0

>  <#Ro5 Violations>  (750) 
0

>  <Molecular Weight>  (750) 
331.35

>  <Ligand Efficiency BEI>  (750) 
nan

>  <Ligand Efficiency LE>  (750) 
nan

>  <Ligand Efficiency LLE>  (750) 
nan

>  <Ligand Efficiency SEI>  (750) 
nan

>  <ALogP>  (750) 
4.65

>  <Assay Organism>  (750) 
nan

>  <Assay Tissue ChEMBL ID>  (750) 
nan

>  <Assay Tissue Name>  (750) 
nan

>  <Assay Cell Type>  (750) 
nan

>  <Assay Subcellular Fraction>  (750) 
nan

>  <Organism Tax ID>  (750) 
9606

>  <BAO Format ID>  (750) 
BAO_0000019

>  <Published Type>  (750) 
nan

>  <Published Relation>  (750) 
nan

>  <Published Value>  (750) 
nan

>  <Published Units>  (750) 
nan

>  <Canonical Smiles>  (750) 
Oc1ccc(cc1)c2nc(c3ccc(F)cc3)c([nH]2)c4ccncc4

>  <Data Validity Comment>  (750) 
nan

>  <Document Journal>  (750) 
nan

>  <Document Year>  (750) 
nan

>  <SRC ID>  (750) 
7

>  <UO Units>  (750) 
UO_0000065

>  <Potential Duplicate>  (750) 
False

>  <Class>  (750) 
0

$$$$

     RDKit          2D

 38 42  0  0  0  0  0  0  0  0999 V2000
    1.3299    5.6152    0.0000 C   0  0  0  0  0  0  0  0  0  0  0  0
   -0.0967    5.1517    0.0000 O   0  0  0  0  0  0  0  0  0  0  0  0
   -0.4086    3.6844    0.0000 C   0  0  0  0  0  0  0  0  0  0  0  0
    0.7062    2.6807    0.0000 C   0  0  0  0  0  0  0  0  0  0  0  0
    0.3943    1.2135    0.0000 C   0  0  0  0  0  0  0  0  0  0  0  0
    1.2760    0.0000    0.0000 C   0  0  0  0  0  0  0  0  0  0  0  0
    0.3943   -1.2135    0.0000 C   0  0  0  0  0  0  0  0  0  0  0  0
   -1.0323   -0.7500    0.0000 N   0  0  0  0  0  0  0  0  0  0  0  0
   -2.2458   -1.6317    0.0000 C   0  0  0  0  0  0  0  0  0  0  0  0
   -3.6161   -1.0216    0.0000 O   0  0  0  0  0  0  0  0  0  0  0  0
   -2.0890   -3.1235    0.0000 C   0  0  0  0  0  0  0  0  0  0  0  0
   -3.3025   -4.0051    0.0000 N   0  0  0  0  0  0  0  0  0  0  0  0
   -3.1458   -5.4969    0.0000 C   0  0  0  0  0  0  0  0  0  0  0  0
   -4.6729   -3.3950    0.0000 C   0  0  0  0  0  0  0  0  0  0  0  0
   -1.0323    0.7500    0.0000 C   0  0  0  0  0  0  0  0  0  0  0  0
   -2.1470    1.7537    0.0000 C   0  0  0  0  0  0  0  0  0  0  0  0
   -1.8351    3.2209    0.0000 C   0  0  0  0  0  0  0  0  0  0  0  0
   -2.9499    4.2246    0.0000 N   0  0  0  0  0  0  0  0  0  0  0  0
   -2.6380    5.6918    0.0000 C   0  0  0  0  0  0  0  0  0  0  0  0
   -1.2114    6.1554    0.0000 N   0  0  0  0  0  0  0  0  0  0  0  0
   -0.8995    7.6226    0.0000 C   0  0  0  0  0  0  0  0  0  0  0  0
    0.5271    8.0861    0.0000 N   0  0  0  0  0  0  0  0  0  0  0  0
    0.8389    9.5533    0.0000 C   0  0  0  0  0  0  0  0  0  0  0  0
   -0.2758   10.5570    0.0000 C   0  0  0  0  0  0  0  0  0  0  0  0
    0.0361   12.0242    0.0000 C   0  0  0  0  0  0  0  0  0  0  0  0
    1.4627   12.4878    0.0000 C   0  0  0  0  0  0  0  0  0  0  0  0
    2.5774   11.4841    0.0000 C   0  0  0  0  0  0  0  0  0  0  0  0
    4.0040   11.9476    0.0000 F   0  0  0  0  0  0  0  0  0  0  0  0
    2.2655   10.0169    0.0000 C   0  0  0  0  0  0  0  0  0  0  0  0
    3.3802    9.0132    0.0000 C   0  0  0  0  0  0  0  0  0  0  0  0
    3.0684    7.5459    0.0000 O   0  0  0  0  0  0  0  0  0  0  0  0
    4.8068    9.4767    0.0000 N   0  0  0  0  0  0  0  0  0  0  0  0
   -2.0143    8.6263    0.0000 C   0  0  0  0  0  0  0  0  0  0  0  0
   -2.0143   10.1263    0.0000 C   0  0  0  0  0  0  0  0  0  0  0  0
   -3.4408   10.5898    0.0000 C   0  0  0  0  0  0  0  0  0  0  0  0
   -4.3225    9.3763    0.0000 N   0  0  0  0  0  0  0  0  0  0  0  0
   -3.4408    8.1628    0.0000 C   0  0  0  0  0  0  0  0  0  0  0  0
   -3.7527    6.6955    0.0000 N   0  0  0  0  0  0  0  0  0  0  0  0
  1  2  1  0
  2  3  1  0
  3  4  2  0
  4  5  1  0
  5  6  1  0
  6  7  1  0
  7  8  1  0
  8  9  1  0
  9 10  2  0
  9 11  1  0
 11 12  1  0
 12 13  1  0
 12 14  1  0
  8 15  1  0
 15 16  1  0
 16 17  2  0
 17 18  1  0
 18 19  1  0
 19 20  2  0
 20 21  1  0
 21 22  1  0
 22 23  1  0
 23 24  2  0
 24 25  1  0
 25 26  2  0
 26 27  1  0
 27 28  1  0
 27 29  2  0
 29 30  1  0
 30 31  2  0
 30 32  1  0
 21 33  2  0
 33 34  1  0
 34 35  2  0
 35 36  1  0
 36 37  1  0
 37 38  2  0
 17  3  1  0
 15  5  2  0
 38 19  1  0
 29 23  1  0
 37 33  1  0
M  END
>  <Molecule>  (751) 
CHEMBL461876

>  <Standard Type>  (751) 
Ki

>  <Standard Relation>  (751) 
>

>  <Standard Value>  (751) 
5011.87

>  <Standard Units>  (751) 
nM

>  <pChEMBL Value>  (751) 
nan

>  <Comment>  (751) 
inactive

>  <Compound Key>  (751) 
SID103904637

>  <Assay>  (751) 
CHEMBL1963742

>  <Assay Description>  (751) 
PUBCHEM_BIOASSAY: Navigating the Kinome. (Class of assay: other) Panel member name: JAK3

>  <BAO Format>  (751) 
assay format

>  <Target>  (751) 
CHEMBL2148

>  <Target Pref. Name>  (751) 
Tyrosine-protein kinase JAK3

>  <Target Organism>  (751) 
Homo sapiens

>  <Target Type>  (751) 
SINGLE PROTEIN

>  <Document>  (751) 
CHEMBL1201862

>  <Source>  (751) 
PubChem BioAssays

>  <Max Phase>  (751) 
0

>  <#Ro5 Violations>  (751) 
1

>  <Molecular Weight>  (751) 
518.55

>  <Ligand Efficiency BEI>  (751) 
nan

>  <Ligand Efficiency LE>  (751) 
nan

>  <Ligand Efficiency LLE>  (751) 
nan

>  <Ligand Efficiency SEI>  (751) 
nan

>  <ALogP>  (751) 
3.14

>  <Assay Organism>  (751) 
nan

>  <Assay Tissue ChEMBL ID>  (751) 
nan

>  <Assay Tissue Name>  (751) 
nan

>  <Assay Cell Type>  (751) 
nan

>  <Assay Subcellular Fraction>  (751) 
nan

>  <Organism Tax ID>  (751) 
9606

>  <BAO Format ID>  (751) 
BAO_0000019

>  <Published Type>  (751) 
nan

>  <Published Relation>  (751) 
nan

>  <Published Value>  (751) 
nan

>  <Published Units>  (751) 
nan

>  <Canonical Smiles>  (751) 
COc1cc2CCN(C(=O)CN(C)C)c2cc1Nc3nc(Nc4cccc(F)c4C(=O)N)c5cc[nH]c5n3

>  <Data Validity Comment>  (751) 
nan

>  <Document Journal>  (751) 
nan

>  <Document Year>  (751) 
nan

>  <SRC ID>  (751) 
7

>  <UO Units>  (751) 
UO_0000065

>  <Potential Duplicate>  (751) 
False

>  <Class>  (751) 
0

$$$$

     RDKit          2D

 25 28  0  0  0  0  0  0  0  0999 V2000
   -5.2500   -9.0933    0.0000 C   0  0  0  0  0  0  0  0  0  0  0  0
   -3.7500   -9.0933    0.0000 O   0  0  0  0  0  0  0  0  0  0  0  0
   -3.0000   -7.7942    0.0000 C   0  0  0  0  0  0  0  0  0  0  0  0
   -3.7500   -6.4952    0.0000 C   0  0  0  0  0  0  0  0  0  0  0  0
   -3.0000   -5.1962    0.0000 C   0  0  0  0  0  0  0  0  0  0  0  0
   -1.5000   -5.1962    0.0000 C   0  0  0  0  0  0  0  0  0  0  0  0
   -0.7500   -6.4952    0.0000 C   0  0  0  0  0  0  0  0  0  0  0  0
   -1.5000   -7.7942    0.0000 C   0  0  0  0  0  0  0  0  0  0  0  0
   -0.7500   -9.0933    0.0000 O   0  0  0  0  0  0  0  0  0  0  0  0
    0.7500   -9.0933    0.0000 C   0  0  0  0  0  0  0  0  0  0  0  0
   -0.7500   -3.8971    0.0000 C   0  0  0  0  0  0  0  0  0  0  0  0
    0.7500   -3.8971    0.0000 N   0  0  0  0  0  0  0  0  0  0  0  0
    1.5000   -2.5981    0.0000 N   0  0  0  0  0  0  0  0  0  0  0  0
    0.7500   -1.2990    0.0000 C   0  0  0  0  0  0  0  0  0  0  0  0
    1.5000    0.0000    0.0000 C   0  0  0  0  0  0  0  0  0  0  0  0
    0.7500    1.2990    0.0000 C   0  0  0  0  0  0  0  0  0  0  0  0
   -0.7500    1.2990    0.0000 C   0  0  0  0  0  0  0  0  0  0  0  0
   -1.5000    0.0000    0.0000 C   0  0  0  0  0  0  0  0  0  0  0  0
   -3.0000    0.0000    0.0000 C   0  0  0  0  0  0  0  0  0  0  0  0
   -3.7500    1.2990    0.0000 O   0  0  0  0  0  0  0  0  0  0  0  0
   -5.2500    1.2990    0.0000 C   0  0  0  0  0  0  0  0  0  0  0  0
   -3.7500   -1.2990    0.0000 C   0  0  0  0  0  0  0  0  0  0  0  0
   -3.0000   -2.5981    0.0000 C   0  0  0  0  0  0  0  0  0  0  0  0
   -1.5000   -2.5981    0.0000 C   0  0  0  0  0  0  0  0  0  0  0  0
   -0.7500   -1.2990    0.0000 C   0  0  0  0  0  0  0  0  0  0  0  0
  1  2  1  0
  2  3  1  0
  3  4  2  0
  4  5  1  0
  5  6  2  0
  6  7  1  0
  7  8  2  0
  8  9  1  0
  9 10  1  0
  6 11  1  0
 11 12  2  0
 12 13  1  0
 13 14  1  0
 14 15  2  0
 15 16  1  0
 16 17  2  0
 17 18  1  0
 18 19  1  0
 19 20  1  0
 20 21  1  0
 19 22  2  0
 22 23  1  0
 23 24  2  0
 24 25  1  0
  8  3  1  0
 24 11  1  0
 25 14  1  0
 25 18  2  0
M  END
>  <Molecule>  (752) 
CHEMBL1997335

>  <Standard Type>  (752) 
Ki

>  <Standard Relation>  (752) 
=

>  <Standard Value>  (752) 
251.19

>  <Standard Units>  (752) 
nM

>  <pChEMBL Value>  (752) 
6.6

>  <Comment>  (752) 
active

>  <Compound Key>  (752) 
SID103905362

>  <Assay>  (752) 
CHEMBL1963742

>  <Assay Description>  (752) 
PUBCHEM_BIOASSAY: Navigating the Kinome. (Class of assay: other) Panel member name: JAK3

>  <BAO Format>  (752) 
assay format

>  <Target>  (752) 
CHEMBL2148

>  <Target Pref. Name>  (752) 
Tyrosine-protein kinase JAK3

>  <Target Organism>  (752) 
Homo sapiens

>  <Target Type>  (752) 
SINGLE PROTEIN

>  <Document>  (752) 
CHEMBL1201862

>  <Source>  (752) 
PubChem BioAssays

>  <Max Phase>  (752) 
0

>  <#Ro5 Violations>  (752) 
0

>  <Molecular Weight>  (752) 
334.38

>  <Ligand Efficiency BEI>  (752) 
nan

>  <Ligand Efficiency LE>  (752) 
nan

>  <Ligand Efficiency LLE>  (752) 
nan

>  <Ligand Efficiency SEI>  (752) 
nan

>  <ALogP>  (752) 
4.41

>  <Assay Organism>  (752) 
nan

>  <Assay Tissue ChEMBL ID>  (752) 
nan

>  <Assay Tissue Name>  (752) 
nan

>  <Assay Cell Type>  (752) 
nan

>  <Assay Subcellular Fraction>  (752) 
nan

>  <Organism Tax ID>  (752) 
9606

>  <BAO Format ID>  (752) 
BAO_0000019

>  <Published Type>  (752) 
nan

>  <Published Relation>  (752) 
nan

>  <Published Value>  (752) 
nan

>  <Published Units>  (752) 
nan

>  <Canonical Smiles>  (752) 
COc1ccc(cc1OC)C2=NNc3cccc4c(OC)ccc2c34

>  <Data Validity Comment>  (752) 
nan

>  <Document Journal>  (752) 
nan

>  <Document Year>  (752) 
nan

>  <SRC ID>  (752) 
7

>  <UO Units>  (752) 
UO_0000065

>  <Potential Duplicate>  (752) 
False

>  <Class>  (752) 
1

$$$$

     RDKit          2D

 30 33  0  0  0  0  0  0  0  0999 V2000
  -15.6585   -1.9555    0.0000 C   0  0  0  0  0  0  0  0  0  0  0  0
  -14.5438   -2.9592    0.0000 C   0  0  0  0  0  0  0  0  0  0  0  0
  -13.1172   -2.4957    0.0000 C   0  0  0  0  0  0  0  0  0  0  0  0
  -12.0025   -3.4994    0.0000 C   0  0  0  0  0  0  0  0  0  0  0  0
  -12.3143   -4.9666    0.0000 C   0  0  0  0  0  0  0  0  0  0  0  0
  -11.1996   -5.9703    0.0000 N   0  0  0  0  0  0  0  0  0  0  0  0
   -9.7730   -5.5068    0.0000 C   0  0  0  0  0  0  0  0  0  0  0  0
   -9.4612   -4.0396    0.0000 O   0  0  0  0  0  0  0  0  0  0  0  0
   -8.6583   -6.5105    0.0000 N   0  0  0  0  0  0  0  0  0  0  0  0
   -7.2317   -6.0469    0.0000 C   0  0  0  0  0  0  0  0  0  0  0  0
   -6.1170   -7.0506    0.0000 C   0  0  0  0  0  0  0  0  0  0  0  0
   -4.6904   -6.5871    0.0000 C   0  0  0  0  0  0  0  0  0  0  0  0
   -4.3786   -5.1199    0.0000 C   0  0  0  0  0  0  0  0  0  0  0  0
   -2.9520   -4.6564    0.0000 N   0  0  0  0  0  0  0  0  0  0  0  0
   -2.6401   -3.1891    0.0000 C   0  0  0  0  0  0  0  0  0  0  0  0
   -3.7548   -2.1855    0.0000 O   0  0  0  0  0  0  0  0  0  0  0  0
   -1.2135   -2.7256    0.0000 C   0  0  0  0  0  0  0  0  0  0  0  0
    0.0000   -3.6073    0.0000 C   0  0  0  0  0  0  0  0  0  0  0  0
    1.2135   -2.7256    0.0000 S   0  0  0  0  0  0  0  0  0  0  0  0
    0.7500   -1.2990    0.0000 C   0  0  0  0  0  0  0  0  0  0  0  0
    1.5000    0.0000    0.0000 N   0  0  0  0  0  0  0  0  0  0  0  0
    0.7500    1.2990    0.0000 C   0  0  0  0  0  0  0  0  0  0  0  0
   -0.7500    1.2990    0.0000 N   0  0  0  0  0  0  0  0  0  0  0  0
   -1.5000    0.0000    0.0000 C   0  0  0  0  0  0  0  0  0  0  0  0
   -3.0000    0.0000    0.0000 N   0  0  0  0  0  0  0  0  0  0  0  0
   -0.7500   -1.2990    0.0000 C   0  0  0  0  0  0  0  0  0  0  0  0
   -5.4933   -4.1162    0.0000 C   0  0  0  0  0  0  0  0  0  0  0  0
   -6.9199   -4.5797    0.0000 C   0  0  0  0  0  0  0  0  0  0  0  0
  -13.7409   -5.4301    0.0000 C   0  0  0  0  0  0  0  0  0  0  0  0
  -14.8556   -4.4264    0.0000 C   0  0  0  0  0  0  0  0  0  0  0  0
  1  2  1  0
  2  3  2  0
  3  4  1  0
  4  5  2  0
  5  6  1  0
  6  7  1  0
  7  8  2  0
  7  9  1  0
  9 10  1  0
 10 11  2  0
 11 12  1  0
 12 13  2  0
 13 14  1  0
 14 15  1  0
 15 16  2  0
 15 17  1  0
 17 18  2  0
 18 19  1  0
 19 20  1  0
 20 21  2  0
 21 22  1  0
 22 23  2  0
 23 24  1  0
 24 25  1  0
 24 26  2  0
 13 27  1  0
 27 28  2  0
  5 29  1  0
 29 30  2  0
 30  2  1  0
 28 10  1  0
 26 17  1  0
 26 20  1  0
M  END
>  <Molecule>  (753) 
CHEMBL1972576

>  <Standard Type>  (753) 
Ki

>  <Standard Relation>  (753) 
>

>  <Standard Value>  (753) 
1584.89

>  <Standard Units>  (753) 
nM

>  <pChEMBL Value>  (753) 
nan

>  <Comment>  (753) 
inactive

>  <Compound Key>  (753) 
SID103904331

>  <Assay>  (753) 
CHEMBL1963742

>  <Assay Description>  (753) 
PUBCHEM_BIOASSAY: Navigating the Kinome. (Class of assay: other) Panel member name: JAK3

>  <BAO Format>  (753) 
assay format

>  <Target>  (753) 
CHEMBL2148

>  <Target Pref. Name>  (753) 
Tyrosine-protein kinase JAK3

>  <Target Organism>  (753) 
Homo sapiens

>  <Target Type>  (753) 
SINGLE PROTEIN

>  <Document>  (753) 
CHEMBL1201862

>  <Source>  (753) 
PubChem BioAssays

>  <Max Phase>  (753) 
0

>  <#Ro5 Violations>  (753) 
0

>  <Molecular Weight>  (753) 
418.48

>  <Ligand Efficiency BEI>  (753) 
nan

>  <Ligand Efficiency LE>  (753) 
nan

>  <Ligand Efficiency LLE>  (753) 
nan

>  <Ligand Efficiency SEI>  (753) 
nan

>  <ALogP>  (753) 
4.48

>  <Assay Organism>  (753) 
nan

>  <Assay Tissue ChEMBL ID>  (753) 
nan

>  <Assay Tissue Name>  (753) 
nan

>  <Assay Cell Type>  (753) 
nan

>  <Assay Subcellular Fraction>  (753) 
nan

>  <Organism Tax ID>  (753) 
9606

>  <BAO Format ID>  (753) 
BAO_0000019

>  <Published Type>  (753) 
nan

>  <Published Relation>  (753) 
nan

>  <Published Value>  (753) 
nan

>  <Published Units>  (753) 
nan

>  <Canonical Smiles>  (753) 
Cc1ccc(NC(=O)Nc2ccc(NC(=O)c3csc4ncnc(N)c34)cc2)cc1

>  <Data Validity Comment>  (753) 
nan

>  <Document Journal>  (753) 
nan

>  <Document Year>  (753) 
nan

>  <SRC ID>  (753) 
7

>  <UO Units>  (753) 
UO_0000065

>  <Potential Duplicate>  (753) 
False

>  <Class>  (753) 
0

$$$$

     RDKit          2D

 28 31  0  0  0  0  0  0  0  0999 V2000
    0.7500  -14.2894    0.0000 C   0  0  0  0  0  0  0  0  0  0  0  0
    1.5000  -12.9904    0.0000 C   0  0  0  0  0  0  0  0  0  0  0  0
    0.7500  -11.6913    0.0000 C   0  0  0  0  0  0  0  0  0  0  0  0
    1.5000  -10.3923    0.0000 C   0  0  0  0  0  0  0  0  0  0  0  0
    3.0000  -10.3923    0.0000 C   0  0  0  0  0  0  0  0  0  0  0  0
    3.7500   -9.0933    0.0000 N   0  0  0  0  0  0  0  0  0  0  0  0
    3.0000   -7.7942    0.0000 C   0  0  0  0  0  0  0  0  0  0  0  0
    1.5000   -7.7942    0.0000 O   0  0  0  0  0  0  0  0  0  0  0  0
    3.7500   -6.4952    0.0000 N   0  0  0  0  0  0  0  0  0  0  0  0
    3.0000   -5.1962    0.0000 C   0  0  0  0  0  0  0  0  0  0  0  0
    3.7500   -3.8971    0.0000 C   0  0  0  0  0  0  0  0  0  0  0  0
    3.0000   -2.5981    0.0000 C   0  0  0  0  0  0  0  0  0  0  0  0
    1.5000   -2.5981    0.0000 C   0  0  0  0  0  0  0  0  0  0  0  0
    0.7500   -3.8971    0.0000 C   0  0  0  0  0  0  0  0  0  0  0  0
    1.5000   -5.1962    0.0000 C   0  0  0  0  0  0  0  0  0  0  0  0
    0.7500   -1.2990    0.0000 C   0  0  0  0  0  0  0  0  0  0  0  0
    1.5000    0.0000    0.0000 C   0  0  0  0  0  0  0  0  0  0  0  0
    0.7500    1.2990    0.0000 C   0  0  0  0  0  0  0  0  0  0  0  0
   -0.7500    1.2990    0.0000 C   0  0  0  0  0  0  0  0  0  0  0  0
   -1.5000    0.0000    0.0000 C   0  0  0  0  0  0  0  0  0  0  0  0
   -2.9672   -0.3119    0.0000 C   0  0  0  0  0  0  0  0  0  0  0  0
   -4.0819    0.6918    0.0000 O   0  0  0  0  0  0  0  0  0  0  0  0
   -3.1240   -1.8037    0.0000 N   0  0  0  0  0  0  0  0  0  0  0  0
   -1.7537   -2.4138    0.0000 C   0  0  0  0  0  0  0  0  0  0  0  0
   -0.7500   -1.2990    0.0000 C   0  0  0  0  0  0  0  0  0  0  0  0
    3.7500  -11.6913    0.0000 C   0  0  0  0  0  0  0  0  0  0  0  0
    3.0000  -12.9904    0.0000 C   0  0  0  0  0  0  0  0  0  0  0  0
    3.7500  -14.2894    0.0000 C   0  0  0  0  0  0  0  0  0  0  0  0
  1  2  1  0
  2  3  2  0
  3  4  1  0
  4  5  2  0
  5  6  1  0
  6  7  1  0
  7  8  2  0
  7  9  1  0
  9 10  1  0
 10 11  2  0
 11 12  1  0
 12 13  2  0
 13 14  1  0
 14 15  2  0
 13 16  1  0
 16 17  2  0
 17 18  1  0
 18 19  2  0
 19 20  1  0
 20 21  1  0
 21 22  2  0
 21 23  1  0
 23 24  1  0
 24 25  1  0
  5 26  1  0
 26 27  2  0
 27 28  1  0
 27  2  1  0
 15 10  1  0
 25 16  1  0
 25 20  2  0
M  END
>  <Molecule>  (754) 
CHEMBL184847

>  <Standard Type>  (754) 
Ki

>  <Standard Relation>  (754) 
>

>  <Standard Value>  (754) 
1584.89

>  <Standard Units>  (754) 
nM

>  <pChEMBL Value>  (754) 
nan

>  <Comment>  (754) 
inactive

>  <Compound Key>  (754) 
SID103904377

>  <Assay>  (754) 
CHEMBL1963742

>  <Assay Description>  (754) 
PUBCHEM_BIOASSAY: Navigating the Kinome. (Class of assay: other) Panel member name: JAK3

>  <BAO Format>  (754) 
assay format

>  <Target>  (754) 
CHEMBL2148

>  <Target Pref. Name>  (754) 
Tyrosine-protein kinase JAK3

>  <Target Organism>  (754) 
Homo sapiens

>  <Target Type>  (754) 
SINGLE PROTEIN

>  <Document>  (754) 
CHEMBL1201862

>  <Source>  (754) 
PubChem BioAssays

>  <Max Phase>  (754) 
0

>  <#Ro5 Violations>  (754) 
0

>  <Molecular Weight>  (754) 
371.44

>  <Ligand Efficiency BEI>  (754) 
nan

>  <Ligand Efficiency LE>  (754) 
nan

>  <Ligand Efficiency LLE>  (754) 
nan

>  <Ligand Efficiency SEI>  (754) 
nan

>  <ALogP>  (754) 
4.86

>  <Assay Organism>  (754) 
nan

>  <Assay Tissue ChEMBL ID>  (754) 
nan

>  <Assay Tissue Name>  (754) 
nan

>  <Assay Cell Type>  (754) 
nan

>  <Assay Subcellular Fraction>  (754) 
nan

>  <Organism Tax ID>  (754) 
9606

>  <BAO Format ID>  (754) 
BAO_0000019

>  <Published Type>  (754) 
nan

>  <Published Relation>  (754) 
nan

>  <Published Value>  (754) 
nan

>  <Published Units>  (754) 
nan

>  <Canonical Smiles>  (754) 
Cc1ccc(NC(=O)Nc2ccc(cc2)c3cccc4C(=O)NCc34)cc1C

>  <Data Validity Comment>  (754) 
nan

>  <Document Journal>  (754) 
nan

>  <Document Year>  (754) 
nan

>  <SRC ID>  (754) 
7

>  <UO Units>  (754) 
UO_0000065

>  <Potential Duplicate>  (754) 
False

>  <Class>  (754) 
0

$$$$

     RDKit          2D

 27 29  0  0  0  0  0  0  0  0999 V2000
    4.5000    0.0000    0.0000 F   0  0  0  0  0  0  0  0  0  0  0  0
    3.0000    0.0000    0.0000 C   0  0  0  0  0  0  0  0  0  0  0  0
    3.0000   -1.5000    0.0000 F   0  0  0  0  0  0  0  0  0  0  0  0
    3.0000    1.5000    0.0000 F   0  0  0  0  0  0  0  0  0  0  0  0
    1.5000    0.0000    0.0000 C   0  0  0  0  0  0  0  0  0  0  0  0
    0.7500   -1.2990    0.0000 C   0  0  0  0  0  0  0  0  0  0  0  0
   -0.7500   -1.2990    0.0000 C   0  0  0  0  0  0  0  0  0  0  0  0
   -1.5000    0.0000    0.0000 C   0  0  0  0  0  0  0  0  0  0  0  0
   -0.7500    1.2990    0.0000 C   0  0  0  0  0  0  0  0  0  0  0  0
   -1.5000    2.5981    0.0000 N   0  0  0  0  0  0  0  0  0  0  0  0
   -0.7500    3.8971    0.0000 C   0  0  0  0  0  0  0  0  0  0  0  0
    0.7500    3.8971    0.0000 O   0  0  0  0  0  0  0  0  0  0  0  0
   -1.5000    5.1962    0.0000 N   0  0  0  0  0  0  0  0  0  0  0  0
   -0.7500    6.4952    0.0000 C   0  0  0  0  0  0  0  0  0  0  0  0
    0.7500    6.4952    0.0000 C   0  0  0  0  0  0  0  0  0  0  0  0
    1.5000    7.7942    0.0000 C   0  0  0  0  0  0  0  0  0  0  0  0
    0.7500    9.0933    0.0000 C   0  0  0  0  0  0  0  0  0  0  0  0
   -0.7500    9.0933    0.0000 C   0  0  0  0  0  0  0  0  0  0  0  0
   -1.5000    7.7942    0.0000 C   0  0  0  0  0  0  0  0  0  0  0  0
    1.5000   10.3923    0.0000 C   0  0  0  0  0  0  0  0  0  0  0  0
    3.0000   10.3923    0.0000 N   0  0  0  0  0  0  0  0  0  0  0  0
    3.7500   11.6913    0.0000 N   0  0  0  0  0  0  0  0  0  0  0  0
    3.0000   12.9904    0.0000 C   0  0  0  0  0  0  0  0  0  0  0  0
    3.7500   14.2894    0.0000 O   0  0  0  0  0  0  0  0  0  0  0  0
    1.5000   12.9904    0.0000 C   0  0  0  0  0  0  0  0  0  0  0  0
    0.7500   11.6913    0.0000 C   0  0  0  0  0  0  0  0  0  0  0  0
    0.7500    1.2990    0.0000 C   0  0  0  0  0  0  0  0  0  0  0  0
  1  2  1  0
  2  3  1  0
  2  4  1  0
  2  5  1  0
  5  6  2  0
  6  7  1  0
  7  8  2  0
  8  9  1  0
  9 10  1  0
 10 11  1  0
 11 12  2  0
 11 13  1  0
 13 14  1  0
 14 15  2  0
 15 16  1  0
 16 17  2  0
 17 18  1  0
 18 19  2  0
 17 20  1  0
 20 21  2  0
 21 22  1  0
 22 23  1  0
 23 24  2  0
 23 25  1  0
 25 26  2  0
  9 27  2  0
 27  5  1  0
 19 14  1  0
 26 20  1  0
M  END
>  <Molecule>  (755) 
CHEMBL2007124

>  <Standard Type>  (755) 
Ki

>  <Standard Relation>  (755) 
>

>  <Standard Value>  (755) 
5011.87

>  <Standard Units>  (755) 
nM

>  <pChEMBL Value>  (755) 
nan

>  <Comment>  (755) 
inactive

>  <Compound Key>  (755) 
SID103904458

>  <Assay>  (755) 
CHEMBL1963742

>  <Assay Description>  (755) 
PUBCHEM_BIOASSAY: Navigating the Kinome. (Class of assay: other) Panel member name: JAK3

>  <BAO Format>  (755) 
assay format

>  <Target>  (755) 
CHEMBL2148

>  <Target Pref. Name>  (755) 
Tyrosine-protein kinase JAK3

>  <Target Organism>  (755) 
Homo sapiens

>  <Target Type>  (755) 
SINGLE PROTEIN

>  <Document>  (755) 
CHEMBL1201862

>  <Source>  (755) 
PubChem BioAssays

>  <Max Phase>  (755) 
0

>  <#Ro5 Violations>  (755) 
0

>  <Molecular Weight>  (755) 
374.32

>  <Ligand Efficiency BEI>  (755) 
nan

>  <Ligand Efficiency LE>  (755) 
nan

>  <Ligand Efficiency LLE>  (755) 
nan

>  <Ligand Efficiency SEI>  (755) 
nan

>  <ALogP>  (755) 
4.1

>  <Assay Organism>  (755) 
nan

>  <Assay Tissue ChEMBL ID>  (755) 
nan

>  <Assay Tissue Name>  (755) 
nan

>  <Assay Cell Type>  (755) 
nan

>  <Assay Subcellular Fraction>  (755) 
nan

>  <Organism Tax ID>  (755) 
9606

>  <BAO Format ID>  (755) 
BAO_0000019

>  <Published Type>  (755) 
nan

>  <Published Relation>  (755) 
nan

>  <Published Value>  (755) 
nan

>  <Published Units>  (755) 
nan

>  <Canonical Smiles>  (755) 
FC(F)(F)c1cccc(NC(=O)Nc2ccc(cc2)C3=NNC(=O)C=C3)c1

>  <Data Validity Comment>  (755) 
nan

>  <Document Journal>  (755) 
nan

>  <Document Year>  (755) 
nan

>  <SRC ID>  (755) 
7

>  <UO Units>  (755) 
UO_0000065

>  <Potential Duplicate>  (755) 
False

>  <Class>  (755) 
0

$$$$

     RDKit          2D

 19 22  0  0  0  0  0  0  0  0999 V2000
   -0.0967    5.1517    0.0000 O   0  0  0  0  0  0  0  0  0  0  0  0
   -0.4086    3.6844    0.0000 C   0  0  0  0  0  0  0  0  0  0  0  0
    0.7062    2.6807    0.0000 N   0  0  0  0  0  0  0  0  0  0  0  0
    0.3943    1.2135    0.0000 C   0  0  0  0  0  0  0  0  0  0  0  0
    1.2760    0.0000    0.0000 S   0  0  0  0  0  0  0  0  0  0  0  0
    0.3943   -1.2135    0.0000 C   0  0  0  0  0  0  0  0  0  0  0  0
   -1.0323   -0.7500    0.0000 C   0  0  0  0  0  0  0  0  0  0  0  0
   -1.0323    0.7500    0.0000 C   0  0  0  0  0  0  0  0  0  0  0  0
   -2.1470    1.7537    0.0000 C   0  0  0  0  0  0  0  0  0  0  0  0
   -3.6388    1.5969    0.0000 N   0  0  0  0  0  0  0  0  0  0  0  0
   -4.2489    2.9672    0.0000 C   0  0  0  0  0  0  0  0  0  0  0  0
   -3.1342    3.9709    0.0000 N   0  0  0  0  0  0  0  0  0  0  0  0
   -1.8351    3.2209    0.0000 N   0  0  0  0  0  0  0  0  0  0  0  0
   -5.7161    3.2791    0.0000 C   0  0  0  0  0  0  0  0  0  0  0  0
   -6.1796    4.7057    0.0000 C   0  0  0  0  0  0  0  0  0  0  0  0
   -7.6469    5.0175    0.0000 C   0  0  0  0  0  0  0  0  0  0  0  0
   -8.6506    3.9028    0.0000 N   0  0  0  0  0  0  0  0  0  0  0  0
   -8.1870    2.4762    0.0000 C   0  0  0  0  0  0  0  0  0  0  0  0
   -6.7198    2.1644    0.0000 C   0  0  0  0  0  0  0  0  0  0  0  0
  1  2  2  0
  2  3  1  0
  3  4  1  0
  4  5  1  0
  5  6  1  0
  6  7  2  0
  7  8  1  0
  8  9  1  0
  9 10  2  0
 10 11  1  0
 11 12  2  0
 12 13  1  0
 11 14  1  0
 14 15  2  0
 15 16  1  0
 16 17  2  0
 17 18  1  0
 18 19  2  0
 13  2  1  0
  8  4  2  0
 13  9  1  0
 19 14  1  0
M  END
>  <Molecule>  (756) 
CHEMBL1968151

>  <Standard Type>  (756) 
Ki

>  <Standard Relation>  (756) 
>

>  <Standard Value>  (756) 
1584.89

>  <Standard Units>  (756) 
nM

>  <pChEMBL Value>  (756) 
nan

>  <Comment>  (756) 
inactive

>  <Compound Key>  (756) 
SID103904980

>  <Assay>  (756) 
CHEMBL1963742

>  <Assay Description>  (756) 
PUBCHEM_BIOASSAY: Navigating the Kinome. (Class of assay: other) Panel member name: JAK3

>  <BAO Format>  (756) 
assay format

>  <Target>  (756) 
CHEMBL2148

>  <Target Pref. Name>  (756) 
Tyrosine-protein kinase JAK3

>  <Target Organism>  (756) 
Homo sapiens

>  <Target Type>  (756) 
SINGLE PROTEIN

>  <Document>  (756) 
CHEMBL1201862

>  <Source>  (756) 
PubChem BioAssays

>  <Max Phase>  (756) 
0

>  <#Ro5 Violations>  (756) 
0

>  <Molecular Weight>  (756) 
269.29

>  <Ligand Efficiency BEI>  (756) 
nan

>  <Ligand Efficiency LE>  (756) 
nan

>  <Ligand Efficiency LLE>  (756) 
nan

>  <Ligand Efficiency SEI>  (756) 
nan

>  <ALogP>  (756) 
1.69

>  <Assay Organism>  (756) 
nan

>  <Assay Tissue ChEMBL ID>  (756) 
nan

>  <Assay Tissue Name>  (756) 
nan

>  <Assay Cell Type>  (756) 
nan

>  <Assay Subcellular Fraction>  (756) 
nan

>  <Organism Tax ID>  (756) 
9606

>  <BAO Format ID>  (756) 
BAO_0000019

>  <Published Type>  (756) 
nan

>  <Published Relation>  (756) 
nan

>  <Published Value>  (756) 
nan

>  <Published Units>  (756) 
nan

>  <Canonical Smiles>  (756) 
O=C1Nc2sccc2c3nc(nn13)c4ccncc4

>  <Data Validity Comment>  (756) 
nan

>  <Document Journal>  (756) 
nan

>  <Document Year>  (756) 
nan

>  <SRC ID>  (756) 
7

>  <UO Units>  (756) 
UO_0000065

>  <Potential Duplicate>  (756) 
False

>  <Class>  (756) 
0

$$$$

     RDKit          2D

 33 37  0  0  0  0  0  0  0  0999 V2000
  -10.1276   -0.1179    0.0000 C   0  0  0  0  0  0  0  0  0  0  0  0
  -10.5911    1.3086    0.0000 C   0  0  0  0  0  0  0  0  0  0  0  0
  -11.0547    2.7352    0.0000 C   0  0  0  0  0  0  0  0  0  0  0  0
  -12.0177    0.8451    0.0000 O   0  0  0  0  0  0  0  0  0  0  0  0
   -9.1645    1.7722    0.0000 C   0  0  0  0  0  0  0  0  0  0  0  0
   -8.0498    0.7685    0.0000 N   0  0  0  0  0  0  0  0  0  0  0  0
   -6.6232    1.2320    0.0000 C   0  0  0  0  0  0  0  0  0  0  0  0
   -6.3114    2.6992    0.0000 N   0  0  0  0  0  0  0  0  0  0  0  0
   -4.8848    3.1627    0.0000 C   0  0  0  0  0  0  0  0  0  0  0  0
   -3.7701    2.1590    0.0000 C   0  0  0  0  0  0  0  0  0  0  0  0
   -4.0819    0.6918    0.0000 C   0  0  0  0  0  0  0  0  0  0  0  0
   -5.5085    0.2283    0.0000 N   0  0  0  0  0  0  0  0  0  0  0  0
   -2.9672   -0.3119    0.0000 C   0  0  0  0  0  0  0  0  0  0  0  0
   -3.1240   -1.8037    0.0000 C   0  0  0  0  0  0  0  0  0  0  0  0
   -1.7537   -2.4138    0.0000 N   0  0  0  0  0  0  0  0  0  0  0  0
   -0.7500   -1.2990    0.0000 C   0  0  0  0  0  0  0  0  0  0  0  0
    0.7500   -1.2990    0.0000 C   0  0  0  0  0  0  0  0  0  0  0  0
    1.5000   -2.5981    0.0000 C   0  0  0  0  0  0  0  0  0  0  0  0
    3.0000   -2.5981    0.0000 C   0  0  0  0  0  0  0  0  0  0  0  0
    4.2990   -1.8481    0.0000 C   0  0  0  0  0  0  0  0  0  0  0  0
    4.2990   -3.3481    0.0000 C   0  0  0  0  0  0  0  0  0  0  0  0
    1.5000    0.0000    0.0000 N   0  0  0  0  0  0  0  0  0  0  0  0
    0.7500    1.2990    0.0000 C   0  0  0  0  0  0  0  0  0  0  0  0
   -0.7500    1.2990    0.0000 C   0  0  0  0  0  0  0  0  0  0  0  0
   -1.5000    0.0000    0.0000 N   0  0  0  0  0  0  0  0  0  0  0  0
   -4.4231   -2.5537    0.0000 C   0  0  0  0  0  0  0  0  0  0  0  0
   -5.7221   -1.8037    0.0000 C   0  0  0  0  0  0  0  0  0  0  0  0
   -7.0211   -2.5537    0.0000 C   0  0  0  0  0  0  0  0  0  0  0  0
   -7.0211   -4.0537    0.0000 C   0  0  0  0  0  0  0  0  0  0  0  0
   -8.3202   -4.8037    0.0000 F   0  0  0  0  0  0  0  0  0  0  0  0
   -5.7221   -4.8037    0.0000 C   0  0  0  0  0  0  0  0  0  0  0  0
   -4.4231   -4.0537    0.0000 C   0  0  0  0  0  0  0  0  0  0  0  0
   -3.1240   -4.8037    0.0000 F   0  0  0  0  0  0  0  0  0  0  0  0
  1  2  1  0
  2  3  1  0
  2  4  1  0
  2  5  1  0
  5  6  1  0
  6  7  1  0
  7  8  2  0
  8  9  1  0
  9 10  2  0
 10 11  1  0
 11 12  2  0
 11 13  1  0
 13 14  2  0
 14 15  1  0
 15 16  2  0
 16 17  1  0
 17 18  1  0
 18 19  1  0
 19 20  1  0
 20 21  1  0
 17 22  2  0
 22 23  1  0
 23 24  2  0
 24 25  1  0
 14 26  1  0
 26 27  2  0
 27 28  1  0
 28 29  2  0
 29 30  1  0
 29 31  1  0
 31 32  2  0
 32 33  1  0
 12  7  1  0
 25 13  1  0
 25 16  1  0
 21 19  1  0
 32 26  1  0
M  END
>  <Molecule>  (757) 
CHEMBL1994040

>  <Standard Type>  (757) 
Ki

>  <Standard Relation>  (757) 
>

>  <Standard Value>  (757) 
1584.89

>  <Standard Units>  (757) 
nM

>  <pChEMBL Value>  (757) 
nan

>  <Comment>  (757) 
inactive

>  <Compound Key>  (757) 
SID103904773

>  <Assay>  (757) 
CHEMBL1963742

>  <Assay Description>  (757) 
PUBCHEM_BIOASSAY: Navigating the Kinome. (Class of assay: other) Panel member name: JAK3

>  <BAO Format>  (757) 
assay format

>  <Target>  (757) 
CHEMBL2148

>  <Target Pref. Name>  (757) 
Tyrosine-protein kinase JAK3

>  <Target Organism>  (757) 
Homo sapiens

>  <Target Type>  (757) 
SINGLE PROTEIN

>  <Document>  (757) 
CHEMBL1201862

>  <Source>  (757) 
PubChem BioAssays

>  <Max Phase>  (757) 
0

>  <#Ro5 Violations>  (757) 
0

>  <Molecular Weight>  (757) 
450.49

>  <Ligand Efficiency BEI>  (757) 
nan

>  <Ligand Efficiency LE>  (757) 
nan

>  <Ligand Efficiency LLE>  (757) 
nan

>  <Ligand Efficiency SEI>  (757) 
nan

>  <ALogP>  (757) 
4.27

>  <Assay Organism>  (757) 
nan

>  <Assay Tissue ChEMBL ID>  (757) 
nan

>  <Assay Tissue Name>  (757) 
nan

>  <Assay Cell Type>  (757) 
nan

>  <Assay Subcellular Fraction>  (757) 
nan

>  <Organism Tax ID>  (757) 
9606

>  <BAO Format ID>  (757) 
BAO_0000019

>  <Published Type>  (757) 
nan

>  <Published Relation>  (757) 
nan

>  <Published Value>  (757) 
nan

>  <Published Units>  (757) 
nan

>  <Canonical Smiles>  (757) 
CC(C)(O)CNc1nccc(n1)c2c(nc3c(CC4CC4)nccn23)c5ccc(F)cc5F

>  <Data Validity Comment>  (757) 
nan

>  <Document Journal>  (757) 
nan

>  <Document Year>  (757) 
nan

>  <SRC ID>  (757) 
7

>  <UO Units>  (757) 
UO_0000065

>  <Potential Duplicate>  (757) 
False

>  <Class>  (757) 
0

$$$$

     RDKit          2D

 23 26  0  0  0  0  0  0  0  0999 V2000
    3.0000    0.0000    0.0000 O   0  0  0  0  0  0  0  0  0  0  0  0
    1.5000    0.0000    0.0000 C   0  0  0  0  0  0  0  0  0  0  0  0
    0.7500   -1.2990    0.0000 C   0  0  0  0  0  0  0  0  0  0  0  0
   -0.7500   -1.2990    0.0000 C   0  0  0  0  0  0  0  0  0  0  0  0
   -1.5000    0.0000    0.0000 C   0  0  0  0  0  0  0  0  0  0  0  0
   -0.7500    1.2990    0.0000 C   0  0  0  0  0  0  0  0  0  0  0  0
   -1.5000    2.5981    0.0000 N   0  0  0  0  0  0  0  0  0  0  0  0
   -0.7500    3.8971    0.0000 C   0  0  0  0  0  0  0  0  0  0  0  0
    0.7500    3.8971    0.0000 C   0  0  0  0  0  0  0  0  0  0  0  0
    1.5000    2.5981    0.0000 C   0  0  0  0  0  0  0  0  0  0  0  0
    0.7500    1.2990    0.0000 C   0  0  0  0  0  0  0  0  0  0  0  0
   -1.5000    5.1962    0.0000 C   0  0  0  0  0  0  0  0  0  0  0  0
   -2.9918    5.3529    0.0000 C   0  0  0  0  0  0  0  0  0  0  0  0
   -3.9955    4.2382    0.0000 O   0  0  0  0  0  0  0  0  0  0  0  0
   -3.3037    6.8202    0.0000 N   0  0  0  0  0  0  0  0  0  0  0  0
   -2.0046    7.5702    0.0000 C   0  0  0  0  0  0  0  0  0  0  0  0
   -1.6927    9.0374    0.0000 C   0  0  0  0  0  0  0  0  0  0  0  0
   -0.2662    9.5009    0.0000 C   0  0  0  0  0  0  0  0  0  0  0  0
    0.8486    8.4972    0.0000 C   0  0  0  0  0  0  0  0  0  0  0  0
    0.5367    7.0300    0.0000 C   0  0  0  0  0  0  0  0  0  0  0  0
   -0.8899    6.5665    0.0000 C   0  0  0  0  0  0  0  0  0  0  0  0
    2.2751    8.9607    0.0000 C   0  0  0  0  0  0  0  0  0  0  0  0
    3.7017    9.4243    0.0000 N   0  0  0  0  0  0  0  0  0  0  0  0
  1  2  1  0
  2  3  1  0
  3  4  1  0
  4  5  1  0
  5  6  1  0
  6  7  2  0
  7  8  1  0
  8  9  2  0
  9 10  1  0
 10 11  2  0
  8 12  1  0
 12 13  1  0
 13 14  2  0
 13 15  1  0
 15 16  1  0
 16 17  2  0
 17 18  1  0
 18 19  2  0
 19 20  1  0
 20 21  2  0
 19 22  1  0
 22 23  3  0
 11  2  1  0
 11  6  1  0
 21 12  1  0
 21 16  1  0
M  END
>  <Molecule>  (758) 
CHEMBL1985681

>  <Standard Type>  (758) 
Ki

>  <Standard Relation>  (758) 
>

>  <Standard Value>  (758) 
5011.87

>  <Standard Units>  (758) 
nM

>  <pChEMBL Value>  (758) 
nan

>  <Comment>  (758) 
inactive

>  <Compound Key>  (758) 
SID103905573

>  <Assay>  (758) 
CHEMBL1963742

>  <Assay Description>  (758) 
PUBCHEM_BIOASSAY: Navigating the Kinome. (Class of assay: other) Panel member name: JAK3

>  <BAO Format>  (758) 
assay format

>  <Target>  (758) 
CHEMBL2148

>  <Target Pref. Name>  (758) 
Tyrosine-protein kinase JAK3

>  <Target Organism>  (758) 
Homo sapiens

>  <Target Type>  (758) 
SINGLE PROTEIN

>  <Document>  (758) 
CHEMBL1201862

>  <Source>  (758) 
PubChem BioAssays

>  <Max Phase>  (758) 
0

>  <#Ro5 Violations>  (758) 
0

>  <Molecular Weight>  (758) 
305.34

>  <Ligand Efficiency BEI>  (758) 
nan

>  <Ligand Efficiency LE>  (758) 
nan

>  <Ligand Efficiency LLE>  (758) 
nan

>  <Ligand Efficiency SEI>  (758) 
nan

>  <ALogP>  (758) 
2.41

>  <Assay Organism>  (758) 
nan

>  <Assay Tissue ChEMBL ID>  (758) 
nan

>  <Assay Tissue Name>  (758) 
nan

>  <Assay Cell Type>  (758) 
nan

>  <Assay Subcellular Fraction>  (758) 
nan

>  <Organism Tax ID>  (758) 
9606

>  <BAO Format ID>  (758) 
BAO_0000019

>  <Published Type>  (758) 
nan

>  <Published Relation>  (758) 
nan

>  <Published Value>  (758) 
nan

>  <Published Units>  (758) 
nan

>  <Canonical Smiles>  (758) 
OC1CCCc2nc(ccc12)C3C(=O)Nc4ccc(cc34)C#N

>  <Data Validity Comment>  (758) 
nan

>  <Document Journal>  (758) 
nan

>  <Document Year>  (758) 
nan

>  <SRC ID>  (758) 
7

>  <UO Units>  (758) 
UO_0000065

>  <Potential Duplicate>  (758) 
False

>  <Class>  (758) 
0

$$$$

     RDKit          2D

 23 25  0  0  0  0  0  0  0  0999 V2000
   -6.1170   -7.0506    0.0000 C   0  0  0  0  0  0  0  0  0  0  0  0
   -4.6904   -6.5871    0.0000 C   0  0  0  0  0  0  0  0  0  0  0  0
   -4.3786   -5.1199    0.0000 C   0  0  0  0  0  0  0  0  0  0  0  0
   -2.9520   -4.6564    0.0000 C   0  0  0  0  0  0  0  0  0  0  0  0
   -1.8373   -5.6601    0.0000 O   0  0  0  0  0  0  0  0  0  0  0  0
   -2.6401   -3.1891    0.0000 N   0  0  0  0  0  0  0  0  0  0  0  0
   -1.2135   -2.7256    0.0000 C   0  0  0  0  0  0  0  0  0  0  0  0
   -0.0000   -3.6073    0.0000 N   0  0  0  0  0  0  0  0  0  0  0  0
    1.2135   -2.7256    0.0000 N   0  0  0  0  0  0  0  0  0  0  0  0
    0.7500   -1.2990    0.0000 C   0  0  0  0  0  0  0  0  0  0  0  0
    1.5000    0.0000    0.0000 C   0  0  0  0  0  0  0  0  0  0  0  0
    0.7500    1.2990    0.0000 C   0  0  0  0  0  0  0  0  0  0  0  0
   -0.7500    1.2990    0.0000 C   0  0  0  0  0  0  0  0  0  0  0  0
   -1.5000    0.0000    0.0000 C   0  0  0  0  0  0  0  0  0  0  0  0
   -0.7500   -1.2990    0.0000 C   0  0  0  0  0  0  0  0  0  0  0  0
   -1.5000    2.5981    0.0000 C   0  0  0  0  0  0  0  0  0  0  0  0
   -0.7500    3.8971    0.0000 C   0  0  0  0  0  0  0  0  0  0  0  0
   -1.5000    5.1962    0.0000 C   0  0  0  0  0  0  0  0  0  0  0  0
   -3.0000    5.1962    0.0000 C   0  0  0  0  0  0  0  0  0  0  0  0
   -3.7500    3.8971    0.0000 C   0  0  0  0  0  0  0  0  0  0  0  0
   -5.2500    3.8971    0.0000 F   0  0  0  0  0  0  0  0  0  0  0  0
   -3.0000    2.5981    0.0000 C   0  0  0  0  0  0  0  0  0  0  0  0
   -3.7500    1.2990    0.0000 F   0  0  0  0  0  0  0  0  0  0  0  0
  1  2  1  0
  2  3  1  0
  3  4  1  0
  4  5  2  0
  4  6  1  0
  6  7  1  0
  7  8  2  0
  8  9  1  0
  9 10  1  0
 10 11  2  0
 11 12  1  0
 12 13  2  0
 13 14  1  0
 14 15  2  0
 13 16  1  0
 16 17  2  0
 17 18  1  0
 18 19  2  0
 19 20  1  0
 20 21  1  0
 20 22  2  0
 22 23  1  0
 15  7  1  0
 15 10  1  0
 22 16  1  0
M  END
>  <Molecule>  (759) 
CHEMBL1985406

>  <Standard Type>  (759) 
Ki

>  <Standard Relation>  (759) 
>

>  <Standard Value>  (759) 
1584.89

>  <Standard Units>  (759) 
nM

>  <pChEMBL Value>  (759) 
nan

>  <Comment>  (759) 
inactive

>  <Compound Key>  (759) 
SID103905036

>  <Assay>  (759) 
CHEMBL1963742

>  <Assay Description>  (759) 
PUBCHEM_BIOASSAY: Navigating the Kinome. (Class of assay: other) Panel member name: JAK3

>  <BAO Format>  (759) 
assay format

>  <Target>  (759) 
CHEMBL2148

>  <Target Pref. Name>  (759) 
Tyrosine-protein kinase JAK3

>  <Target Organism>  (759) 
Homo sapiens

>  <Target Type>  (759) 
SINGLE PROTEIN

>  <Document>  (759) 
CHEMBL1201862

>  <Source>  (759) 
PubChem BioAssays

>  <Max Phase>  (759) 
0

>  <#Ro5 Violations>  (759) 
0

>  <Molecular Weight>  (759) 
315.32

>  <Ligand Efficiency BEI>  (759) 
nan

>  <Ligand Efficiency LE>  (759) 
nan

>  <Ligand Efficiency LLE>  (759) 
nan

>  <Ligand Efficiency SEI>  (759) 
nan

>  <ALogP>  (759) 
4.25

>  <Assay Organism>  (759) 
nan

>  <Assay Tissue ChEMBL ID>  (759) 
nan

>  <Assay Tissue Name>  (759) 
nan

>  <Assay Cell Type>  (759) 
nan

>  <Assay Subcellular Fraction>  (759) 
nan

>  <Organism Tax ID>  (759) 
9606

>  <BAO Format ID>  (759) 
BAO_0000019

>  <Published Type>  (759) 
nan

>  <Published Relation>  (759) 
nan

>  <Published Value>  (759) 
nan

>  <Published Units>  (759) 
nan

>  <Canonical Smiles>  (759) 
CCCC(=O)Nc1n[nH]c2ccc(cc12)c3cccc(F)c3F

>  <Data Validity Comment>  (759) 
nan

>  <Document Journal>  (759) 
nan

>  <Document Year>  (759) 
nan

>  <SRC ID>  (759) 
7

>  <UO Units>  (759) 
UO_0000065

>  <Potential Duplicate>  (759) 
False

>  <Class>  (759) 
0

$$$$

     RDKit          2D

 34 37  0  0  0  0  0  0  0  0999 V2000
   -1.5000    0.0000    0.0000 C   0  0  0  0  0  0  0  0  0  0  0  0
   -3.0000    0.0000    0.0000 O   0  0  0  0  0  0  0  0  0  0  0  0
   -3.7500   -1.2990    0.0000 C   0  0  0  0  0  0  0  0  0  0  0  0
   -3.0000   -2.5981    0.0000 C   0  0  0  0  0  0  0  0  0  0  0  0
   -3.7500   -3.8971    0.0000 C   0  0  0  0  0  0  0  0  0  0  0  0
   -3.0000   -5.1962    0.0000 N   0  0  0  0  0  0  0  0  0  0  0  0
   -1.5000   -5.1962    0.0000 C   0  0  0  0  0  0  0  0  0  0  0  0
   -0.7500   -6.4952    0.0000 N   0  0  0  0  0  0  0  0  0  0  0  0
    0.7500   -6.4952    0.0000 C   0  0  0  0  0  0  0  0  0  0  0  0
    1.5000   -5.1962    0.0000 C   0  0  0  0  0  0  0  0  0  0  0  0
    3.0000   -5.1962    0.0000 F   0  0  0  0  0  0  0  0  0  0  0  0
    0.7500   -3.8971    0.0000 C   0  0  0  0  0  0  0  0  0  0  0  0
    1.5000   -2.5981    0.0000 N   0  0  0  0  0  0  0  0  0  0  0  0
    3.0000   -2.5981    0.0000 C   0  0  0  0  0  0  0  0  0  0  0  0
    3.7500   -3.8971    0.0000 C   0  0  0  0  0  0  0  0  0  0  0  0
    5.2500   -3.8971    0.0000 C   0  0  0  0  0  0  0  0  0  0  0  0
    6.0000   -2.5981    0.0000 C   0  0  0  0  0  0  0  0  0  0  0  0
    7.5000   -2.5981    0.0000 O   0  0  0  0  0  0  0  0  0  0  0  0
    8.2500   -1.2990    0.0000 C   0  0  0  0  0  0  0  0  0  0  0  0
    9.3991   -0.3349    0.0000 C   0  0  0  0  0  0  0  0  0  0  0  0
    9.3991   -2.2632    0.0000 C   0  0  0  0  0  0  0  0  0  0  0  0
    7.5000   -0.0000    0.0000 C   0  0  0  0  0  0  0  0  0  0  0  0
    8.2500    1.2990    0.0000 O   0  0  0  0  0  0  0  0  0  0  0  0
    6.0000   -0.0000    0.0000 N   0  0  0  0  0  0  0  0  0  0  0  0
    5.2500   -1.2990    0.0000 C   0  0  0  0  0  0  0  0  0  0  0  0
    3.7500   -1.2990    0.0000 N   0  0  0  0  0  0  0  0  0  0  0  0
   -0.7500   -3.8971    0.0000 N   0  0  0  0  0  0  0  0  0  0  0  0
   -5.2500   -3.8971    0.0000 C   0  0  0  0  0  0  0  0  0  0  0  0
   -6.0000   -2.5981    0.0000 C   0  0  0  0  0  0  0  0  0  0  0  0
   -7.5000   -2.5981    0.0000 O   0  0  0  0  0  0  0  0  0  0  0  0
   -8.2500   -1.2990    0.0000 C   0  0  0  0  0  0  0  0  0  0  0  0
   -5.2500   -1.2990    0.0000 C   0  0  0  0  0  0  0  0  0  0  0  0
   -6.0000    0.0000    0.0000 O   0  0  0  0  0  0  0  0  0  0  0  0
   -7.5000    0.0000    0.0000 C   0  0  0  0  0  0  0  0  0  0  0  0
  1  2  1  0
  2  3  1  0
  3  4  2  0
  4  5  1  0
  5  6  1  0
  6  7  1  0
  7  8  2  0
  8  9  1  0
  9 10  2  0
 10 11  1  0
 10 12  1  0
 12 13  1  0
 13 14  1  0
 14 15  2  0
 15 16  1  0
 16 17  2  0
 17 18  1  0
 18 19  1  0
 19 20  1  0
 19 21  1  0
 19 22  1  0
 22 23  2  0
 22 24  1  0
 24 25  1  0
 25 26  2  0
 12 27  2  0
  5 28  2  0
 28 29  1  0
 29 30  1  0
 30 31  1  0
 29 32  2  0
 32 33  1  0
 33 34  1  0
 32  3  1  0
 27  7  1  0
 26 14  1  0
 25 17  1  0
M  END
>  <Molecule>  (760) 
CHEMBL475251

>  <Standard Type>  (760) 
Ki

>  <Standard Relation>  (760) 
=

>  <Standard Value>  (760) 
794.33

>  <Standard Units>  (760) 
nM

>  <pChEMBL Value>  (760) 
6.1

>  <Comment>  (760) 
active

>  <Compound Key>  (760) 
SID103904600

>  <Assay>  (760) 
CHEMBL1963742

>  <Assay Description>  (760) 
PUBCHEM_BIOASSAY: Navigating the Kinome. (Class of assay: other) Panel member name: JAK3

>  <BAO Format>  (760) 
assay format

>  <Target>  (760) 
CHEMBL2148

>  <Target Pref. Name>  (760) 
Tyrosine-protein kinase JAK3

>  <Target Organism>  (760) 
Homo sapiens

>  <Target Type>  (760) 
SINGLE PROTEIN

>  <Document>  (760) 
CHEMBL1201862

>  <Source>  (760) 
PubChem BioAssays

>  <Max Phase>  (760) 
2

>  <#Ro5 Violations>  (760) 
0

>  <Molecular Weight>  (760) 
470.46

>  <Ligand Efficiency BEI>  (760) 
nan

>  <Ligand Efficiency LE>  (760) 
nan

>  <Ligand Efficiency LLE>  (760) 
nan

>  <Ligand Efficiency SEI>  (760) 
nan

>  <ALogP>  (760) 
3.63

>  <Assay Organism>  (760) 
nan

>  <Assay Tissue ChEMBL ID>  (760) 
nan

>  <Assay Tissue Name>  (760) 
nan

>  <Assay Cell Type>  (760) 
nan

>  <Assay Subcellular Fraction>  (760) 
nan

>  <Organism Tax ID>  (760) 
9606

>  <BAO Format ID>  (760) 
BAO_0000019

>  <Published Type>  (760) 
nan

>  <Published Relation>  (760) 
nan

>  <Published Value>  (760) 
nan

>  <Published Units>  (760) 
nan

>  <Canonical Smiles>  (760) 
COc1cc(Nc2ncc(F)c(Nc3ccc4OC(C)(C)C(=O)Nc4n3)n2)cc(OC)c1OC

>  <Data Validity Comment>  (760) 
nan

>  <Document Journal>  (760) 
nan

>  <Document Year>  (760) 
nan

>  <SRC ID>  (760) 
7

>  <UO Units>  (760) 
UO_0000065

>  <Potential Duplicate>  (760) 
False

>  <Class>  (760) 
1

$$$$

     RDKit          2D

 22 24  0  0  0  0  0  0  0  0999 V2000
    0.7500   -9.0933    0.0000 C   0  0  0  0  0  0  0  0  0  0  0  0
    2.2500   -9.0933    0.0000 C   0  0  0  0  0  0  0  0  0  0  0  0
    3.0000   -7.7942    0.0000 S   0  0  0  0  0  0  0  0  0  0  0  0
    1.7010   -7.0442    0.0000 O   0  0  0  0  0  0  0  0  0  0  0  0
    4.2990   -8.5442    0.0000 O   0  0  0  0  0  0  0  0  0  0  0  0
    3.7500   -6.4952    0.0000 N   0  0  0  0  0  0  0  0  0  0  0  0
    3.0000   -5.1962    0.0000 C   0  0  0  0  0  0  0  0  0  0  0  0
    1.5000   -5.1962    0.0000 C   0  0  0  0  0  0  0  0  0  0  0  0
    0.7500   -3.8971    0.0000 C   0  0  0  0  0  0  0  0  0  0  0  0
    1.5000   -2.5981    0.0000 C   0  0  0  0  0  0  0  0  0  0  0  0
    3.0000   -2.5981    0.0000 C   0  0  0  0  0  0  0  0  0  0  0  0
    3.7500   -3.8971    0.0000 C   0  0  0  0  0  0  0  0  0  0  0  0
    0.7500   -1.2990    0.0000 C   0  0  0  0  0  0  0  0  0  0  0  0
    1.5000    0.0000    0.0000 C   0  0  0  0  0  0  0  0  0  0  0  0
    0.7500    1.2990    0.0000 C   0  0  0  0  0  0  0  0  0  0  0  0
   -0.7500    1.2990    0.0000 C   0  0  0  0  0  0  0  0  0  0  0  0
   -1.7537    2.4138    0.0000 N   0  0  0  0  0  0  0  0  0  0  0  0
   -3.1240    1.8037    0.0000 N   0  0  0  0  0  0  0  0  0  0  0  0
   -2.9672    0.3119    0.0000 C   0  0  0  0  0  0  0  0  0  0  0  0
   -4.0819   -0.6918    0.0000 N   0  0  0  0  0  0  0  0  0  0  0  0
   -1.5000    0.0000    0.0000 C   0  0  0  0  0  0  0  0  0  0  0  0
   -0.7500   -1.2990    0.0000 C   0  0  0  0  0  0  0  0  0  0  0  0
  1  2  1  0
  2  3  1  0
  3  4  2  0
  3  5  2  0
  3  6  1  0
  6  7  1  0
  7  8  2  0
  8  9  1  0
  9 10  2  0
 10 11  1  0
 11 12  2  0
 10 13  1  0
 13 14  2  0
 14 15  1  0
 15 16  2  0
 16 17  1  0
 17 18  1  0
 18 19  2  0
 19 20  1  0
 19 21  1  0
 21 22  2  0
 12  7  1  0
 22 13  1  0
 21 16  1  0
M  END
>  <Molecule>  (761) 
CHEMBL1997597

>  <Standard Type>  (761) 
Ki

>  <Standard Relation>  (761) 
=

>  <Standard Value>  (761) 
158.49

>  <Standard Units>  (761) 
nM

>  <pChEMBL Value>  (761) 
6.8

>  <Comment>  (761) 
active

>  <Compound Key>  (761) 
SID103904489

>  <Assay>  (761) 
CHEMBL1963742

>  <Assay Description>  (761) 
PUBCHEM_BIOASSAY: Navigating the Kinome. (Class of assay: other) Panel member name: JAK3

>  <BAO Format>  (761) 
assay format

>  <Target>  (761) 
CHEMBL2148

>  <Target Pref. Name>  (761) 
Tyrosine-protein kinase JAK3

>  <Target Organism>  (761) 
Homo sapiens

>  <Target Type>  (761) 
SINGLE PROTEIN

>  <Document>  (761) 
CHEMBL1201862

>  <Source>  (761) 
PubChem BioAssays

>  <Max Phase>  (761) 
0

>  <#Ro5 Violations>  (761) 
0

>  <Molecular Weight>  (761) 
316.39

>  <Ligand Efficiency BEI>  (761) 
nan

>  <Ligand Efficiency LE>  (761) 
nan

>  <Ligand Efficiency LLE>  (761) 
nan

>  <Ligand Efficiency SEI>  (761) 
nan

>  <ALogP>  (761) 
2.57

>  <Assay Organism>  (761) 
nan

>  <Assay Tissue ChEMBL ID>  (761) 
nan

>  <Assay Tissue Name>  (761) 
nan

>  <Assay Cell Type>  (761) 
nan

>  <Assay Subcellular Fraction>  (761) 
nan

>  <Organism Tax ID>  (761) 
9606

>  <BAO Format ID>  (761) 
BAO_0000019

>  <Published Type>  (761) 
nan

>  <Published Relation>  (761) 
nan

>  <Published Value>  (761) 
nan

>  <Published Units>  (761) 
nan

>  <Canonical Smiles>  (761) 
CCS(=O)(=O)Nc1ccc(cc1)c2ccc3[nH]nc(N)c3c2

>  <Data Validity Comment>  (761) 
nan

>  <Document Journal>  (761) 
nan

>  <Document Year>  (761) 
nan

>  <SRC ID>  (761) 
7

>  <UO Units>  (761) 
UO_0000065

>  <Potential Duplicate>  (761) 
False

>  <Class>  (761) 
1

$$$$

     RDKit          2D

 20 24  0  0  0  0  0  0  0  0999 V2000
   -6.5113    4.4486    0.0000 S   0  0  0  0  0  0  0  0  0  0  0  0
   -5.5076    3.3338    0.0000 C   0  0  0  0  0  0  0  0  0  0  0  0
   -5.8195    1.8666    0.0000 N   0  0  0  0  0  0  0  0  0  0  0  0
   -4.5205    1.1166    0.0000 N   0  0  0  0  0  0  0  0  0  0  0  0
   -3.4057    2.1203    0.0000 C   0  0  0  0  0  0  0  0  0  0  0  0
   -4.0159    3.4906    0.0000 N   0  0  0  0  0  0  0  0  0  0  0  0
   -3.1342    4.7042    0.0000 C   0  0  0  0  0  0  0  0  0  0  0  0
   -3.4460    6.1714    0.0000 N   0  0  0  0  0  0  0  0  0  0  0  0
   -2.1470    6.9214    0.0000 N   0  0  0  0  0  0  0  0  0  0  0  0
   -1.0323    5.9177    0.0000 C   0  0  0  0  0  0  0  0  0  0  0  0
    0.4349    6.2296    0.0000 S   0  0  0  0  0  0  0  0  0  0  0  0
   -1.6424    4.5474    0.0000 N   0  0  0  0  0  0  0  0  0  0  0  0
   -1.0323    3.1771    0.0000 C   0  0  0  0  0  0  0  0  0  0  0  0
    0.3943    2.7135    0.0000 S   0  0  0  0  0  0  0  0  0  0  0  0
    0.3943    1.2135    0.0000 C   0  0  0  0  0  0  0  0  0  0  0  0
    1.2760    0.0000    0.0000 C   0  0  0  0  0  0  0  0  0  0  0  0
    0.3943   -1.2135    0.0000 C   0  0  0  0  0  0  0  0  0  0  0  0
   -1.0323   -0.7500    0.0000 C   0  0  0  0  0  0  0  0  0  0  0  0
   -1.0323    0.7500    0.0000 C   0  0  0  0  0  0  0  0  0  0  0  0
   -1.9140    1.9635    0.0000 C   0  0  0  0  0  0  0  0  0  0  0  0
  1  2  2  0
  2  3  1  0
  3  4  1  0
  4  5  2  0
  5  6  1  0
  6  7  1  0
  7  8  2  0
  8  9  1  0
  9 10  1  0
 10 11  2  0
 10 12  1  0
 12 13  1  0
 13 14  1  0
 14 15  1  0
 15 16  1  0
 16 17  1  0
 17 18  1  0
 18 19  1  0
 19 20  1  0
  6  2  1  0
 20  5  1  0
 12  7  1  0
 20 13  2  0
 19 15  2  0
M  END
>  <Molecule>  (762) 
CHEMBL1969537

>  <Standard Type>  (762) 
Ki

>  <Standard Relation>  (762) 
>

>  <Standard Value>  (762) 
1584.89

>  <Standard Units>  (762) 
nM

>  <pChEMBL Value>  (762) 
nan

>  <Comment>  (762) 
inactive

>  <Compound Key>  (762) 
SID103905585

>  <Assay>  (762) 
CHEMBL1963742

>  <Assay Description>  (762) 
PUBCHEM_BIOASSAY: Navigating the Kinome. (Class of assay: other) Panel member name: JAK3

>  <BAO Format>  (762) 
assay format

>  <Target>  (762) 
CHEMBL2148

>  <Target Pref. Name>  (762) 
Tyrosine-protein kinase JAK3

>  <Target Organism>  (762) 
Homo sapiens

>  <Target Type>  (762) 
SINGLE PROTEIN

>  <Document>  (762) 
CHEMBL1201862

>  <Source>  (762) 
PubChem BioAssays

>  <Max Phase>  (762) 
0

>  <#Ro5 Violations>  (762) 
0

>  <Molecular Weight>  (762) 
320.43

>  <Ligand Efficiency BEI>  (762) 
nan

>  <Ligand Efficiency LE>  (762) 
nan

>  <Ligand Efficiency LLE>  (762) 
nan

>  <Ligand Efficiency SEI>  (762) 
nan

>  <ALogP>  (762) 
2.7

>  <Assay Organism>  (762) 
nan

>  <Assay Tissue ChEMBL ID>  (762) 
nan

>  <Assay Tissue Name>  (762) 
nan

>  <Assay Cell Type>  (762) 
nan

>  <Assay Subcellular Fraction>  (762) 
nan

>  <Organism Tax ID>  (762) 
9606

>  <BAO Format ID>  (762) 
BAO_0000019

>  <Published Type>  (762) 
nan

>  <Published Relation>  (762) 
nan

>  <Published Value>  (762) 
nan

>  <Published Units>  (762) 
nan

>  <Canonical Smiles>  (762) 
S=C1NN=C2N1C3=NNC(=S)N3c4sc5CCCc5c24

>  <Data Validity Comment>  (762) 
nan

>  <Document Journal>  (762) 
nan

>  <Document Year>  (762) 
nan

>  <SRC ID>  (762) 
7

>  <UO Units>  (762) 
UO_0000065

>  <Potential Duplicate>  (762) 
False

>  <Class>  (762) 
0

$$$$

     RDKit          2D

 26 29  0  0  0  0  0  0  0  0999 V2000
   -2.6998  -15.2030    0.0000 C   0  0  0  0  0  0  0  0  0  0  0  0
   -1.4863  -14.3214    0.0000 O   0  0  0  0  0  0  0  0  0  0  0  0
   -1.6431  -12.8296    0.0000 C   0  0  0  0  0  0  0  0  0  0  0  0
   -3.0134  -12.2195    0.0000 C   0  0  0  0  0  0  0  0  0  0  0  0
   -3.1702  -10.7277    0.0000 C   0  0  0  0  0  0  0  0  0  0  0  0
   -1.9567   -9.8460    0.0000 C   0  0  0  0  0  0  0  0  0  0  0  0
   -2.1135   -8.3542    0.0000 C   0  0  0  0  0  0  0  0  0  0  0  0
   -0.8999   -7.4725    0.0000 N   0  0  0  0  0  0  0  0  0  0  0  0
   -1.0567   -5.9808    0.0000 N   0  0  0  0  0  0  0  0  0  0  0  0
    0.1568   -5.0991    0.0000 C   0  0  0  0  0  0  0  0  0  0  0  0
    1.5271   -5.7092    0.0000 N   0  0  0  0  0  0  0  0  0  0  0  0
    2.7406   -4.8275    0.0000 C   0  0  0  0  0  0  0  0  0  0  0  0
    2.5838   -3.3357    0.0000 N   0  0  0  0  0  0  0  0  0  0  0  0
    1.2135   -2.7256    0.0000 C   0  0  0  0  0  0  0  0  0  0  0  0
    0.7500   -1.2990    0.0000 C   0  0  0  0  0  0  0  0  0  0  0  0
    1.5000    0.0000    0.0000 C   0  0  0  0  0  0  0  0  0  0  0  0
    0.7500    1.2990    0.0000 C   0  0  0  0  0  0  0  0  0  0  0  0
   -0.7500    1.2990    0.0000 C   0  0  0  0  0  0  0  0  0  0  0  0
   -1.5000    0.0000    0.0000 C   0  0  0  0  0  0  0  0  0  0  0  0
   -0.7500   -1.2990    0.0000 C   0  0  0  0  0  0  0  0  0  0  0  0
   -1.2135   -2.7256    0.0000 N   0  0  0  0  0  0  0  0  0  0  0  0
    0.0000   -3.6073    0.0000 C   0  0  0  0  0  0  0  0  0  0  0  0
   -0.5864  -10.4561    0.0000 C   0  0  0  0  0  0  0  0  0  0  0  0
   -0.4296  -11.9479    0.0000 C   0  0  0  0  0  0  0  0  0  0  0  0
    0.9408  -12.5580    0.0000 O   0  0  0  0  0  0  0  0  0  0  0  0
    2.1543  -11.6763    0.0000 C   0  0  0  0  0  0  0  0  0  0  0  0
  1  2  1  0
  2  3  1  0
  3  4  2  0
  4  5  1  0
  5  6  2  0
  6  7  1  0
  7  8  2  3
  8  9  1  0
  9 10  1  0
 10 11  2  0
 11 12  1  0
 12 13  2  0
 13 14  1  0
 14 15  1  0
 15 16  2  0
 16 17  1  0
 17 18  2  0
 18 19  1  0
 19 20  2  0
 20 21  1  0
 21 22  1  0
  6 23  1  0
 23 24  2  0
 24 25  1  0
 25 26  1  0
 24  3  1  0
 22 10  1  0
 22 14  2  0
 20 15  1  0
M  END
>  <Molecule>  (763) 
CHEMBL1974664

>  <Standard Type>  (763) 
Ki

>  <Standard Relation>  (763) 
>

>  <Standard Value>  (763) 
1584.89

>  <Standard Units>  (763) 
nM

>  <pChEMBL Value>  (763) 
nan

>  <Comment>  (763) 
inactive

>  <Compound Key>  (763) 
SID103905525

>  <Assay>  (763) 
CHEMBL1963742

>  <Assay Description>  (763) 
PUBCHEM_BIOASSAY: Navigating the Kinome. (Class of assay: other) Panel member name: JAK3

>  <BAO Format>  (763) 
assay format

>  <Target>  (763) 
CHEMBL2148

>  <Target Pref. Name>  (763) 
Tyrosine-protein kinase JAK3

>  <Target Organism>  (763) 
Homo sapiens

>  <Target Type>  (763) 
SINGLE PROTEIN

>  <Document>  (763) 
CHEMBL1201862

>  <Source>  (763) 
PubChem BioAssays

>  <Max Phase>  (763) 
0

>  <#Ro5 Violations>  (763) 
0

>  <Molecular Weight>  (763) 
347.38

>  <Ligand Efficiency BEI>  (763) 
nan

>  <Ligand Efficiency LE>  (763) 
nan

>  <Ligand Efficiency LLE>  (763) 
nan

>  <Ligand Efficiency SEI>  (763) 
nan

>  <ALogP>  (763) 
3.57

>  <Assay Organism>  (763) 
nan

>  <Assay Tissue ChEMBL ID>  (763) 
nan

>  <Assay Tissue Name>  (763) 
nan

>  <Assay Cell Type>  (763) 
nan

>  <Assay Subcellular Fraction>  (763) 
nan

>  <Organism Tax ID>  (763) 
9606

>  <BAO Format ID>  (763) 
BAO_0000019

>  <Published Type>  (763) 
nan

>  <Published Relation>  (763) 
nan

>  <Published Value>  (763) 
nan

>  <Published Units>  (763) 
nan

>  <Canonical Smiles>  (763) 
COc1ccc(C=NNc2ncnc3c4ccccc4[nH]c23)cc1OC

>  <Data Validity Comment>  (763) 
nan

>  <Document Journal>  (763) 
nan

>  <Document Year>  (763) 
nan

>  <SRC ID>  (763) 
7

>  <UO Units>  (763) 
UO_0000065

>  <Potential Duplicate>  (763) 
False

>  <Class>  (763) 
0

$$$$

     RDKit          2D

 30 32  0  0  0  0  0  0  0  0999 V2000
    3.0000    0.0000    0.0000 C   0  0  0  0  0  0  0  0  0  0  0  0
    1.5000    0.0000    0.0000 C   0  0  0  0  0  0  0  0  0  0  0  0
    0.7500   -1.2990    0.0000 C   0  0  0  0  0  0  0  0  0  0  0  0
   -0.7500   -1.2990    0.0000 N   0  0  0  0  0  0  0  0  0  0  0  0
   -1.5000    0.0000    0.0000 C   0  0  0  0  0  0  0  0  0  0  0  0
   -3.0000    0.0000    0.0000 N   0  0  0  0  0  0  0  0  0  0  0  0
   -3.7500    1.2990    0.0000 C   0  0  0  0  0  0  0  0  0  0  0  0
   -3.0000    2.5981    0.0000 C   0  0  0  0  0  0  0  0  0  0  0  0
   -3.7500    3.8971    0.0000 C   0  0  0  0  0  0  0  0  0  0  0  0
   -5.2500    3.8971    0.0000 C   0  0  0  0  0  0  0  0  0  0  0  0
   -6.0000    2.5981    0.0000 C   0  0  0  0  0  0  0  0  0  0  0  0
   -5.2500    1.2990    0.0000 C   0  0  0  0  0  0  0  0  0  0  0  0
   -7.5000    2.5981    0.0000 S   0  0  0  0  0  0  0  0  0  0  0  0
   -7.5000    4.0981    0.0000 O   0  0  0  0  0  0  0  0  0  0  0  0
   -7.5000    1.0981    0.0000 O   0  0  0  0  0  0  0  0  0  0  0  0
   -9.0000    2.5981    0.0000 N   0  0  0  0  0  0  0  0  0  0  0  0
   -0.7500    1.2990    0.0000 N   0  0  0  0  0  0  0  0  0  0  0  0
    0.7500    1.2990    0.0000 C   0  0  0  0  0  0  0  0  0  0  0  0
    1.5000    2.5981    0.0000 N   0  0  0  0  0  0  0  0  0  0  0  0
    0.7500    3.8971    0.0000 C   0  0  0  0  0  0  0  0  0  0  0  0
    1.5000    5.1962    0.0000 C   0  0  0  0  0  0  0  0  0  0  0  0
    0.7500    6.4952    0.0000 C   0  0  0  0  0  0  0  0  0  0  0  0
   -0.7500    6.4952    0.0000 C   0  0  0  0  0  0  0  0  0  0  0  0
   -1.5000    7.7942    0.0000 O   0  0  0  0  0  0  0  0  0  0  0  0
   -0.7500    9.0933    0.0000 C   0  0  0  0  0  0  0  0  0  0  0  0
   -1.5000   10.3923    0.0000 C   0  0  0  0  0  0  0  0  0  0  0  0
   -3.0000   10.3923    0.0000 O   0  0  0  0  0  0  0  0  0  0  0  0
   -0.7500   11.6913    0.0000 N   0  0  0  0  0  0  0  0  0  0  0  0
   -1.5000    5.1962    0.0000 C   0  0  0  0  0  0  0  0  0  0  0  0
   -0.7500    3.8971    0.0000 C   0  0  0  0  0  0  0  0  0  0  0  0
  1  2  1  0
  2  3  2  0
  3  4  1  0
  4  5  2  0
  5  6  1  0
  6  7  1  0
  7  8  2  0
  8  9  1  0
  9 10  2  0
 10 11  1  0
 11 12  2  0
 11 13  1  0
 13 14  2  0
 13 15  2  0
 13 16  1  0
  5 17  1  0
 17 18  2  0
 18 19  1  0
 19 20  1  0
 20 21  2  0
 21 22  1  0
 22 23  2  0
 23 24  1  0
 24 25  1  0
 25 26  1  0
 26 27  2  0
 26 28  1  0
 23 29  1  0
 29 30  2  0
 18  2  1  0
 12  7  1  0
 30 20  1  0
M  END
>  <Molecule>  (764) 
CHEMBL1988838

>  <Standard Type>  (764) 
Ki

>  <Standard Relation>  (764) 
=

>  <Standard Value>  (764) 
125.89

>  <Standard Units>  (764) 
nM

>  <pChEMBL Value>  (764) 
6.9

>  <Comment>  (764) 
active

>  <Compound Key>  (764) 
SID103904596

>  <Assay>  (764) 
CHEMBL1963742

>  <Assay Description>  (764) 
PUBCHEM_BIOASSAY: Navigating the Kinome. (Class of assay: other) Panel member name: JAK3

>  <BAO Format>  (764) 
assay format

>  <Target>  (764) 
CHEMBL2148

>  <Target Pref. Name>  (764) 
Tyrosine-protein kinase JAK3

>  <Target Organism>  (764) 
Homo sapiens

>  <Target Type>  (764) 
SINGLE PROTEIN

>  <Document>  (764) 
CHEMBL1201862

>  <Source>  (764) 
PubChem BioAssays

>  <Max Phase>  (764) 
0

>  <#Ro5 Violations>  (764) 
0

>  <Molecular Weight>  (764) 
428.47

>  <Ligand Efficiency BEI>  (764) 
nan

>  <Ligand Efficiency LE>  (764) 
nan

>  <Ligand Efficiency LLE>  (764) 
nan

>  <Ligand Efficiency SEI>  (764) 
nan

>  <ALogP>  (764) 
1.78

>  <Assay Organism>  (764) 
nan

>  <Assay Tissue ChEMBL ID>  (764) 
nan

>  <Assay Tissue Name>  (764) 
nan

>  <Assay Cell Type>  (764) 
nan

>  <Assay Subcellular Fraction>  (764) 
nan

>  <Organism Tax ID>  (764) 
9606

>  <BAO Format ID>  (764) 
BAO_0000019

>  <Published Type>  (764) 
nan

>  <Published Relation>  (764) 
nan

>  <Published Value>  (764) 
nan

>  <Published Units>  (764) 
nan

>  <Canonical Smiles>  (764) 
Cc1cnc(Nc2cccc(c2)S(=O)(=O)N)nc1Nc3ccc(OCC(=O)N)cc3

>  <Data Validity Comment>  (764) 
nan

>  <Document Journal>  (764) 
nan

>  <Document Year>  (764) 
nan

>  <SRC ID>  (764) 
7

>  <UO Units>  (764) 
UO_0000065

>  <Potential Duplicate>  (764) 
False

>  <Class>  (764) 
1

$$$$

     RDKit          2D

 30 33  0  0  0  0  0  0  0  0999 V2000
   -5.2500   -3.8971    0.0000 C   0  0  0  0  0  0  0  0  0  0  0  0
   -3.7500   -3.8971    0.0000 O   0  0  0  0  0  0  0  0  0  0  0  0
   -3.0000   -5.1962    0.0000 C   0  0  0  0  0  0  0  0  0  0  0  0
   -1.5000   -5.1962    0.0000 C   0  0  0  0  0  0  0  0  0  0  0  0
   -0.7500   -6.4952    0.0000 C   0  0  0  0  0  0  0  0  0  0  0  0
    0.7500   -6.4952    0.0000 N   0  0  0  0  0  0  0  0  0  0  0  0
    1.5000   -5.1962    0.0000 C   0  0  0  0  0  0  0  0  0  0  0  0
    3.0000   -5.1962    0.0000 N   0  0  0  0  0  0  0  0  0  0  0  0
    3.7500   -3.8971    0.0000 C   0  0  0  0  0  0  0  0  0  0  0  0
    3.0000   -2.5981    0.0000 N   0  0  0  0  0  0  0  0  0  0  0  0
    1.5000   -2.5981    0.0000 C   0  0  0  0  0  0  0  0  0  0  0  0
    0.7500   -3.8971    0.0000 N   0  0  0  0  0  0  0  0  0  0  0  0
    0.7500   -1.2990    0.0000 N   0  0  0  0  0  0  0  0  0  0  0  0
    1.5000    0.0000    0.0000 C   0  0  0  0  0  0  0  0  0  0  0  0
    0.7500    1.2990    0.0000 C   0  0  0  0  0  0  0  0  0  0  0  0
   -0.7500    1.2990    0.0000 C   0  0  0  0  0  0  0  0  0  0  0  0
   -1.5000    0.0000    0.0000 C   0  0  0  0  0  0  0  0  0  0  0  0
   -3.0000    0.0000    0.0000 C   0  0  0  0  0  0  0  0  0  0  0  0
   -3.7500   -1.2990    0.0000 C   0  0  0  0  0  0  0  0  0  0  0  0
   -5.2500   -1.2990    0.0000 C   0  0  0  0  0  0  0  0  0  0  0  0
   -3.0000   -2.5981    0.0000 C   0  0  0  0  0  0  0  0  0  0  0  0
   -1.5000   -2.5981    0.0000 C   0  0  0  0  0  0  0  0  0  0  0  0
   -0.7500   -1.2990    0.0000 C   0  0  0  0  0  0  0  0  0  0  0  0
   -1.5000   -7.7942    0.0000 C   0  0  0  0  0  0  0  0  0  0  0  0
   -3.0000   -7.7942    0.0000 C   0  0  0  0  0  0  0  0  0  0  0  0
   -3.7500   -9.0933    0.0000 O   0  0  0  0  0  0  0  0  0  0  0  0
   -5.2500   -9.0933    0.0000 C   0  0  0  0  0  0  0  0  0  0  0  0
   -3.7500   -6.4952    0.0000 C   0  0  0  0  0  0  0  0  0  0  0  0
   -5.2500   -6.4952    0.0000 O   0  0  0  0  0  0  0  0  0  0  0  0
   -6.0000   -5.1962    0.0000 C   0  0  0  0  0  0  0  0  0  0  0  0
  1  2  1  0
  2  3  1  0
  3  4  2  0
  4  5  1  0
  5  6  1  0
  6  7  1  0
  7  8  2  0
  8  9  1  0
  9 10  2  0
 10 11  1  0
 11 12  2  0
 11 13  1  0
 13 14  1  0
 14 15  1  0
 15 16  1  0
 16 17  1  0
 17 18  2  0
 18 19  1  0
 19 20  1  0
 19 21  2  0
 21 22  1  0
 22 23  2  0
  5 24  2  0
 24 25  1  0
 25 26  1  0
 26 27  1  0
 25 28  2  0
 28 29  1  0
 29 30  1  0
 28  3  1  0
 12  7  1  0
 23 13  1  0
 23 17  1  0
M  END
>  <Molecule>  (765) 
CHEMBL1992125

>  <Standard Type>  (765) 
Ki

>  <Standard Relation>  (765) 
=

>  <Standard Value>  (765) 
794.33

>  <Standard Units>  (765) 
nM

>  <pChEMBL Value>  (765) 
6.1

>  <Comment>  (765) 
active

>  <Compound Key>  (765) 
SID103905213

>  <Assay>  (765) 
CHEMBL1963742

>  <Assay Description>  (765) 
PUBCHEM_BIOASSAY: Navigating the Kinome. (Class of assay: other) Panel member name: JAK3

>  <BAO Format>  (765) 
assay format

>  <Target>  (765) 
CHEMBL2148

>  <Target Pref. Name>  (765) 
Tyrosine-protein kinase JAK3

>  <Target Organism>  (765) 
Homo sapiens

>  <Target Type>  (765) 
SINGLE PROTEIN

>  <Document>  (765) 
CHEMBL1201862

>  <Source>  (765) 
PubChem BioAssays

>  <Max Phase>  (765) 
0

>  <#Ro5 Violations>  (765) 
0

>  <Molecular Weight>  (765) 
407.47

>  <Ligand Efficiency BEI>  (765) 
nan

>  <Ligand Efficiency LE>  (765) 
nan

>  <Ligand Efficiency LLE>  (765) 
nan

>  <Ligand Efficiency SEI>  (765) 
nan

>  <ALogP>  (765) 
4.03

>  <Assay Organism>  (765) 
nan

>  <Assay Tissue ChEMBL ID>  (765) 
nan

>  <Assay Tissue Name>  (765) 
nan

>  <Assay Cell Type>  (765) 
nan

>  <Assay Subcellular Fraction>  (765) 
nan

>  <Organism Tax ID>  (765) 
9606

>  <BAO Format ID>  (765) 
BAO_0000019

>  <Published Type>  (765) 
nan

>  <Published Relation>  (765) 
nan

>  <Published Value>  (765) 
nan

>  <Published Units>  (765) 
nan

>  <Canonical Smiles>  (765) 
COc1cc(Nc2ncnc(n2)N3CCCc4cc(C)ccc34)cc(OC)c1OC

>  <Data Validity Comment>  (765) 
nan

>  <Document Journal>  (765) 
nan

>  <Document Year>  (765) 
nan

>  <SRC ID>  (765) 
7

>  <UO Units>  (765) 
UO_0000065

>  <Potential Duplicate>  (765) 
False

>  <Class>  (765) 
1

$$$$

     RDKit          2D

 28 31  0  0  0  0  0  0  0  0999 V2000
    3.0000    0.0000    0.0000 N   0  0  0  0  0  0  0  0  0  0  0  0
    1.5000    0.0000    0.0000 C   0  0  0  0  0  0  0  0  0  0  0  0
    0.7500   -1.2990    0.0000 N   0  0  0  0  0  0  0  0  0  0  0  0
   -0.7500   -1.2990    0.0000 C   0  0  0  0  0  0  0  0  0  0  0  0
   -1.5000    0.0000    0.0000 N   0  0  0  0  0  0  0  0  0  0  0  0
   -0.7500    1.2990    0.0000 C   0  0  0  0  0  0  0  0  0  0  0  0
   -1.2135    2.7256    0.0000 S   0  0  0  0  0  0  0  0  0  0  0  0
   -0.0000    3.6073    0.0000 C   0  0  0  0  0  0  0  0  0  0  0  0
   -0.0000    5.1073    0.0000 Br  0  0  0  0  0  0  0  0  0  0  0  0
    1.2135    2.7256    0.0000 C   0  0  0  0  0  0  0  0  0  0  0  0
    2.6401    3.1891    0.0000 C   0  0  0  0  0  0  0  0  0  0  0  0
    3.7548    2.1855    0.0000 C   0  0  0  0  0  0  0  0  0  0  0  0
    5.1814    2.6490    0.0000 C   0  0  0  0  0  0  0  0  0  0  0  0
    5.4933    4.1162    0.0000 C   0  0  0  0  0  0  0  0  0  0  0  0
    6.9199    4.5797    0.0000 N   0  0  0  0  0  0  0  0  0  0  0  0
    8.0346    3.5760    0.0000 C   0  0  0  0  0  0  0  0  0  0  0  0
    7.7227    2.1088    0.0000 O   0  0  0  0  0  0  0  0  0  0  0  0
    9.4612    4.0396    0.0000 C   0  0  0  0  0  0  0  0  0  0  0  0
   10.5759    3.0359    0.0000 C   0  0  0  0  0  0  0  0  0  0  0  0
   10.2640    1.5686    0.0000 C   0  0  0  0  0  0  0  0  0  0  0  0
   11.3787    0.5649    0.0000 C   0  0  0  0  0  0  0  0  0  0  0  0
   12.8053    1.0285    0.0000 C   0  0  0  0  0  0  0  0  0  0  0  0
   13.1172    2.4957    0.0000 C   0  0  0  0  0  0  0  0  0  0  0  0
   14.5438    2.9592    0.0000 Cl  0  0  0  0  0  0  0  0  0  0  0  0
   12.0025    3.4994    0.0000 C   0  0  0  0  0  0  0  0  0  0  0  0
    4.3786    5.1199    0.0000 C   0  0  0  0  0  0  0  0  0  0  0  0
    2.9520    4.6564    0.0000 C   0  0  0  0  0  0  0  0  0  0  0  0
    0.7500    1.2990    0.0000 C   0  0  0  0  0  0  0  0  0  0  0  0
  1  2  1  0
  2  3  2  0
  3  4  1  0
  4  5  2  0
  5  6  1  0
  6  7  1  0
  7  8  1  0
  8  9  1  0
  8 10  2  0
 10 11  1  0
 11 12  2  0
 12 13  1  0
 13 14  2  0
 14 15  1  0
 15 16  1  0
 16 17  2  0
 16 18  1  0
 18 19  1  0
 19 20  2  0
 20 21  1  0
 21 22  2  0
 22 23  1  0
 23 24  1  0
 23 25  2  0
 14 26  1  0
 26 27  2  0
 10 28  1  0
 28  2  1  0
 28  6  2  0
 27 11  1  0
 25 19  1  0
M  END
>  <Molecule>  (766) 
CHEMBL1980896

>  <Standard Type>  (766) 
Ki

>  <Standard Relation>  (766) 
>

>  <Standard Value>  (766) 
1584.89

>  <Standard Units>  (766) 
nM

>  <pChEMBL Value>  (766) 
nan

>  <Comment>  (766) 
inactive

>  <Compound Key>  (766) 
SID103904856

>  <Assay>  (766) 
CHEMBL1963742

>  <Assay Description>  (766) 
PUBCHEM_BIOASSAY: Navigating the Kinome. (Class of assay: other) Panel member name: JAK3

>  <BAO Format>  (766) 
assay format

>  <Target>  (766) 
CHEMBL2148

>  <Target Pref. Name>  (766) 
Tyrosine-protein kinase JAK3

>  <Target Organism>  (766) 
Homo sapiens

>  <Target Type>  (766) 
SINGLE PROTEIN

>  <Document>  (766) 
CHEMBL1201862

>  <Source>  (766) 
PubChem BioAssays

>  <Max Phase>  (766) 
0

>  <#Ro5 Violations>  (766) 
1

>  <Molecular Weight>  (766) 
473.78

>  <Ligand Efficiency BEI>  (766) 
nan

>  <Ligand Efficiency LE>  (766) 
nan

>  <Ligand Efficiency LLE>  (766) 
nan

>  <Ligand Efficiency SEI>  (766) 
nan

>  <ALogP>  (766) 
5.54

>  <Assay Organism>  (766) 
nan

>  <Assay Tissue ChEMBL ID>  (766) 
nan

>  <Assay Tissue Name>  (766) 
nan

>  <Assay Cell Type>  (766) 
nan

>  <Assay Subcellular Fraction>  (766) 
nan

>  <Organism Tax ID>  (766) 
9606

>  <BAO Format ID>  (766) 
BAO_0000019

>  <Published Type>  (766) 
nan

>  <Published Relation>  (766) 
nan

>  <Published Value>  (766) 
nan

>  <Published Units>  (766) 
nan

>  <Canonical Smiles>  (766) 
Nc1ncnc2sc(Br)c(c3ccc(NC(=O)Cc4cccc(Cl)c4)cc3)c12

>  <Data Validity Comment>  (766) 
nan

>  <Document Journal>  (766) 
nan

>  <Document Year>  (766) 
nan

>  <SRC ID>  (766) 
7

>  <UO Units>  (766) 
UO_0000065

>  <Potential Duplicate>  (766) 
False

>  <Class>  (766) 
0

$$$$

     RDKit          2D

 21 24  0  0  0  0  0  0  0  0999 V2000
   -0.0000   -5.1073    0.0000 N   0  0  0  0  0  0  0  0  0  0  0  0
   -0.0000   -3.6073    0.0000 C   0  0  0  0  0  0  0  0  0  0  0  0
    1.2135   -2.7256    0.0000 N   0  0  0  0  0  0  0  0  0  0  0  0
    0.7500   -1.2990    0.0000 C   0  0  0  0  0  0  0  0  0  0  0  0
    1.5000    0.0000    0.0000 C   0  0  0  0  0  0  0  0  0  0  0  0
    0.7500    1.2990    0.0000 C   0  0  0  0  0  0  0  0  0  0  0  0
   -0.7500    1.2990    0.0000 C   0  0  0  0  0  0  0  0  0  0  0  0
   -1.5000    0.0000    0.0000 C   0  0  0  0  0  0  0  0  0  0  0  0
   -0.7500   -1.2990    0.0000 C   0  0  0  0  0  0  0  0  0  0  0  0
   -1.2135   -2.7256    0.0000 N   0  0  0  0  0  0  0  0  0  0  0  0
   -2.6401   -3.1891    0.0000 C   0  0  0  0  0  0  0  0  0  0  0  0
   -3.8536   -2.3075    0.0000 N   0  0  0  0  0  0  0  0  0  0  0  0
   -5.0672   -3.1891    0.0000 C   0  0  0  0  0  0  0  0  0  0  0  0
   -6.5344   -2.8773    0.0000 C   0  0  0  0  0  0  0  0  0  0  0  0
   -7.5381   -3.9920    0.0000 C   0  0  0  0  0  0  0  0  0  0  0  0
   -7.0746   -5.4186    0.0000 C   0  0  0  0  0  0  0  0  0  0  0  0
   -5.6073   -5.7305    0.0000 C   0  0  0  0  0  0  0  0  0  0  0  0
   -4.6036   -4.6157    0.0000 C   0  0  0  0  0  0  0  0  0  0  0  0
   -3.1036   -4.6157    0.0000 S   0  0  0  0  0  0  0  0  0  0  0  0
   -1.5000    2.5981    0.0000 C   0  0  0  0  0  0  0  0  0  0  0  0
   -2.2500    3.8971    0.0000 N   0  0  0  0  0  0  0  0  0  0  0  0
  1  2  1  0
  2  3  2  0
  3  4  1  0
  4  5  2  0
  5  6  1  0
  6  7  2  0
  7  8  1  0
  8  9  2  0
  9 10  1  0
 10 11  1  0
 11 12  2  0
 12 13  1  0
 13 14  1  0
 14 15  1  0
 15 16  1  0
 16 17  1  0
 17 18  1  0
 18 19  1  0
  7 20  1  0
 20 21  3  0
 10  2  1  0
  9  4  1  0
 19 11  1  0
 18 13  2  0
M  END
>  <Molecule>  (767) 
CHEMBL1996345

>  <Standard Type>  (767) 
Ki

>  <Standard Relation>  (767) 
>

>  <Standard Value>  (767) 
5011.87

>  <Standard Units>  (767) 
nM

>  <pChEMBL Value>  (767) 
nan

>  <Comment>  (767) 
inactive

>  <Compound Key>  (767) 
SID103904821

>  <Assay>  (767) 
CHEMBL1963742

>  <Assay Description>  (767) 
PUBCHEM_BIOASSAY: Navigating the Kinome. (Class of assay: other) Panel member name: JAK3

>  <BAO Format>  (767) 
assay format

>  <Target>  (767) 
CHEMBL2148

>  <Target Pref. Name>  (767) 
Tyrosine-protein kinase JAK3

>  <Target Organism>  (767) 
Homo sapiens

>  <Target Type>  (767) 
SINGLE PROTEIN

>  <Document>  (767) 
CHEMBL1201862

>  <Source>  (767) 
PubChem BioAssays

>  <Max Phase>  (767) 
0

>  <#Ro5 Violations>  (767) 
0

>  <Molecular Weight>  (767) 
295.37

>  <Ligand Efficiency BEI>  (767) 
nan

>  <Ligand Efficiency LE>  (767) 
nan

>  <Ligand Efficiency LLE>  (767) 
nan

>  <Ligand Efficiency SEI>  (767) 
nan

>  <ALogP>  (767) 
2.81

>  <Assay Organism>  (767) 
nan

>  <Assay Tissue ChEMBL ID>  (767) 
nan

>  <Assay Tissue Name>  (767) 
nan

>  <Assay Cell Type>  (767) 
nan

>  <Assay Subcellular Fraction>  (767) 
nan

>  <Organism Tax ID>  (767) 
9606

>  <BAO Format ID>  (767) 
BAO_0000019

>  <Published Type>  (767) 
nan

>  <Published Relation>  (767) 
nan

>  <Published Value>  (767) 
nan

>  <Published Units>  (767) 
nan

>  <Canonical Smiles>  (767) 
Nc1nc2ccc(cc2n1c3nc4CCCCc4s3)C#N

>  <Data Validity Comment>  (767) 
nan

>  <Document Journal>  (767) 
nan

>  <Document Year>  (767) 
nan

>  <SRC ID>  (767) 
7

>  <UO Units>  (767) 
UO_0000065

>  <Potential Duplicate>  (767) 
False

>  <Class>  (767) 
0

$$$$

     RDKit          2D

 17 19  0  0  0  0  0  0  0  0999 V2000
    3.0000    0.0000    0.0000 C   0  0  0  0  0  0  0  0  0  0  0  0
    1.5000    0.0000    0.0000 C   0  0  0  0  0  0  0  0  0  0  0  0
    0.7500   -1.2990    0.0000 N   0  0  0  0  0  0  0  0  0  0  0  0
   -0.7500   -1.2990    0.0000 C   0  0  0  0  0  0  0  0  0  0  0  0
   -1.5000    0.0000    0.0000 C   0  0  0  0  0  0  0  0  0  0  0  0
   -2.9672   -0.3119    0.0000 S   0  0  0  0  0  0  0  0  0  0  0  0
   -3.1240   -1.8037    0.0000 C   0  0  0  0  0  0  0  0  0  0  0  0
   -4.3375   -2.6853    0.0000 C   0  0  0  0  0  0  0  0  0  0  0  0
   -5.7079   -2.0752    0.0000 Br  0  0  0  0  0  0  0  0  0  0  0  0
   -4.1807   -4.1771    0.0000 C   0  0  0  0  0  0  0  0  0  0  0  0
   -2.8104   -4.7872    0.0000 C   0  0  0  0  0  0  0  0  0  0  0  0
   -1.5969   -3.9055    0.0000 C   0  0  0  0  0  0  0  0  0  0  0  0
   -0.2266   -4.5156    0.0000 Cl  0  0  0  0  0  0  0  0  0  0  0  0
   -1.7537   -2.4138    0.0000 C   0  0  0  0  0  0  0  0  0  0  0  0
   -0.7500    1.2990    0.0000 C   0  0  0  0  0  0  0  0  0  0  0  0
   -1.5000    2.5981    0.0000 O   0  0  0  0  0  0  0  0  0  0  0  0
    0.7500    1.2990    0.0000 O   0  0  0  0  0  0  0  0  0  0  0  0
  1  2  1  0
  2  3  2  0
  3  4  1  0
  4  5  2  0
  5  6  1  0
  6  7  1  0
  7  8  2  0
  8  9  1  0
  8 10  1  0
 10 11  2  0
 11 12  1  0
 12 13  1  0
 12 14  2  0
  5 15  1  0
 15 16  2  0
 15 17  1  0
 17  2  1  0
 14  4  1  0
 14  7  1  0
M  END
>  <Molecule>  (768) 
CHEMBL1974702

>  <Standard Type>  (768) 
Ki

>  <Standard Relation>  (768) 
>

>  <Standard Value>  (768) 
1584.89

>  <Standard Units>  (768) 
nM

>  <pChEMBL Value>  (768) 
nan

>  <Comment>  (768) 
inactive

>  <Compound Key>  (768) 
SID103905310

>  <Assay>  (768) 
CHEMBL1963742

>  <Assay Description>  (768) 
PUBCHEM_BIOASSAY: Navigating the Kinome. (Class of assay: other) Panel member name: JAK3

>  <BAO Format>  (768) 
assay format

>  <Target>  (768) 
CHEMBL2148

>  <Target Pref. Name>  (768) 
Tyrosine-protein kinase JAK3

>  <Target Organism>  (768) 
Homo sapiens

>  <Target Type>  (768) 
SINGLE PROTEIN

>  <Document>  (768) 
CHEMBL1201862

>  <Source>  (768) 
PubChem BioAssays

>  <Max Phase>  (768) 
0

>  <#Ro5 Violations>  (768) 
0

>  <Molecular Weight>  (768) 
330.59

>  <Ligand Efficiency BEI>  (768) 
nan

>  <Ligand Efficiency LE>  (768) 
nan

>  <Ligand Efficiency LLE>  (768) 
nan

>  <Ligand Efficiency SEI>  (768) 
nan

>  <ALogP>  (768) 
4.13

>  <Assay Organism>  (768) 
nan

>  <Assay Tissue ChEMBL ID>  (768) 
nan

>  <Assay Tissue Name>  (768) 
nan

>  <Assay Cell Type>  (768) 
nan

>  <Assay Subcellular Fraction>  (768) 
nan

>  <Organism Tax ID>  (768) 
9606

>  <BAO Format ID>  (768) 
BAO_0000019

>  <Published Type>  (768) 
nan

>  <Published Relation>  (768) 
nan

>  <Published Value>  (768) 
nan

>  <Published Units>  (768) 
nan

>  <Canonical Smiles>  (768) 
CC1=Nc2c(sc3c(Br)ccc(Cl)c23)C(=O)O1

>  <Data Validity Comment>  (768) 
nan

>  <Document Journal>  (768) 
nan

>  <Document Year>  (768) 
nan

>  <SRC ID>  (768) 
7

>  <UO Units>  (768) 
UO_0000065

>  <Potential Duplicate>  (768) 
False

>  <Class>  (768) 
0

$$$$

     RDKit          2D

 30 34  0  0  0  0  0  0  0  0999 V2000
    3.0000    0.0000    0.0000 C   0  0  0  0  0  0  0  0  0  0  0  0
    1.5000    0.0000    0.0000 C   0  0  0  0  0  0  0  0  0  0  0  0
    0.7500   -1.2990    0.0000 N   0  0  0  0  0  0  0  0  0  0  0  0
   -0.7500   -1.2990    0.0000 C   0  0  0  0  0  0  0  0  0  0  0  0
   -1.5000    0.0000    0.0000 C   0  0  0  0  0  0  0  0  0  0  0  0
   -0.7500    1.2990    0.0000 N   0  0  0  0  0  0  0  0  0  0  0  0
   -1.2135    2.7256    0.0000 C   0  0  0  0  0  0  0  0  0  0  0  0
   -2.6401    3.1891    0.0000 C   0  0  0  0  0  0  0  0  0  0  0  0
   -2.9520    4.6564    0.0000 C   0  0  0  0  0  0  0  0  0  0  0  0
   -4.3786    5.1199    0.0000 C   0  0  0  0  0  0  0  0  0  0  0  0
   -5.4933    4.1162    0.0000 N   0  0  0  0  0  0  0  0  0  0  0  0
   -5.1814    2.6490    0.0000 C   0  0  0  0  0  0  0  0  0  0  0  0
   -6.2961    1.6453    0.0000 N   0  0  0  0  0  0  0  0  0  0  0  0
   -7.7227    2.1088    0.0000 C   0  0  0  0  0  0  0  0  0  0  0  0
   -8.8374    1.1051    0.0000 C   0  0  0  0  0  0  0  0  0  0  0  0
   -8.0426   -0.1670    0.0000 O   0  0  0  0  0  0  0  0  0  0  0  0
  -10.2282    0.5432    0.0000 C   0  0  0  0  0  0  0  0  0  0  0  0
  -10.0194    2.0286    0.0000 C   0  0  0  0  0  0  0  0  0  0  0  0
   -3.7548    2.1855    0.0000 N   0  0  0  0  0  0  0  0  0  0  0  0
   -0.0000    3.6073    0.0000 C   0  0  0  0  0  0  0  0  0  0  0  0
    1.2135    2.7256    0.0000 N   0  0  0  0  0  0  0  0  0  0  0  0
    0.7500    1.2990    0.0000 C   0  0  0  0  0  0  0  0  0  0  0  0
   -0.0000    5.1073    0.0000 C   0  0  0  0  0  0  0  0  0  0  0  0
   -1.2990    5.8573    0.0000 C   0  0  0  0  0  0  0  0  0  0  0  0
   -1.2990    7.3573    0.0000 C   0  0  0  0  0  0  0  0  0  0  0  0
   -0.0000    8.1073    0.0000 C   0  0  0  0  0  0  0  0  0  0  0  0
   -0.0000    9.6073    0.0000 F   0  0  0  0  0  0  0  0  0  0  0  0
    1.2990    7.3573    0.0000 C   0  0  0  0  0  0  0  0  0  0  0  0
    1.2990    5.8573    0.0000 C   0  0  0  0  0  0  0  0  0  0  0  0
    2.5981    5.1073    0.0000 F   0  0  0  0  0  0  0  0  0  0  0  0
  1  2  1  0
  2  3  2  0
  3  4  1  0
  4  5  2  0
  5  6  1  0
  6  7  1  0
  7  8  1  0
  8  9  2  0
  9 10  1  0
 10 11  2  0
 11 12  1  0
 12 13  1  0
 13 14  1  0
 14 15  1  0
 15 16  1  0
 15 17  1  0
 17 18  1  0
 12 19  2  0
  7 20  2  0
 20 21  1  0
 21 22  2  0
 20 23  1  0
 23 24  2  0
 24 25  1  0
 25 26  2  0
 26 27  1  0
 26 28  1  0
 28 29  2  0
 29 30  1  0
 22  2  1  0
 22  6  1  0
 19  8  1  0
 18 15  1  0
 29 23  1  0
M  END
>  <Molecule>  (769) 
CHEMBL1965589

>  <Standard Type>  (769) 
Ki

>  <Standard Relation>  (769) 
>

>  <Standard Value>  (769) 
1584.89

>  <Standard Units>  (769) 
nM

>  <pChEMBL Value>  (769) 
nan

>  <Comment>  (769) 
inactive

>  <Compound Key>  (769) 
SID103904761

>  <Assay>  (769) 
CHEMBL1963742

>  <Assay Description>  (769) 
PUBCHEM_BIOASSAY: Navigating the Kinome. (Class of assay: other) Panel member name: JAK3

>  <BAO Format>  (769) 
assay format

>  <Target>  (769) 
CHEMBL2148

>  <Target Pref. Name>  (769) 
Tyrosine-protein kinase JAK3

>  <Target Organism>  (769) 
Homo sapiens

>  <Target Type>  (769) 
SINGLE PROTEIN

>  <Document>  (769) 
CHEMBL1201862

>  <Source>  (769) 
PubChem BioAssays

>  <Max Phase>  (769) 
0

>  <#Ro5 Violations>  (769) 
0

>  <Molecular Weight>  (769) 
408.41

>  <Ligand Efficiency BEI>  (769) 
nan

>  <Ligand Efficiency LE>  (769) 
nan

>  <Ligand Efficiency LLE>  (769) 
nan

>  <Ligand Efficiency SEI>  (769) 
nan

>  <ALogP>  (769) 
3.38

>  <Assay Organism>  (769) 
nan

>  <Assay Tissue ChEMBL ID>  (769) 
nan

>  <Assay Tissue Name>  (769) 
nan

>  <Assay Cell Type>  (769) 
nan

>  <Assay Subcellular Fraction>  (769) 
nan

>  <Organism Tax ID>  (769) 
9606

>  <BAO Format ID>  (769) 
BAO_0000019

>  <Published Type>  (769) 
nan

>  <Published Relation>  (769) 
nan

>  <Published Value>  (769) 
nan

>  <Published Units>  (769) 
nan

>  <Canonical Smiles>  (769) 
Cc1nccn2c(c3ccnc(NCC4(O)CC4)n3)c(nc12)c5ccc(F)cc5F

>  <Data Validity Comment>  (769) 
nan

>  <Document Journal>  (769) 
nan

>  <Document Year>  (769) 
nan

>  <SRC ID>  (769) 
7

>  <UO Units>  (769) 
UO_0000065

>  <Potential Duplicate>  (769) 
False

>  <Class>  (769) 
0

$$$$

     RDKit          2D

 21 24  0  0  0  0  0  0  0  0999 V2000
    3.7500   -1.2990    0.0000 C   0  0  0  0  0  0  0  0  0  0  0  0
    3.0000    0.0000    0.0000 O   0  0  0  0  0  0  0  0  0  0  0  0
    1.5000    0.0000    0.0000 C   0  0  0  0  0  0  0  0  0  0  0  0
    0.7500   -1.2990    0.0000 C   0  0  0  0  0  0  0  0  0  0  0  0
   -0.7500   -1.2990    0.0000 C   0  0  0  0  0  0  0  0  0  0  0  0
   -1.5000    0.0000    0.0000 C   0  0  0  0  0  0  0  0  0  0  0  0
   -0.7500    1.2990    0.0000 C   0  0  0  0  0  0  0  0  0  0  0  0
    0.7500    1.2990    0.0000 C   0  0  0  0  0  0  0  0  0  0  0  0
   -1.7537    2.4138    0.0000 C   0  0  0  0  0  0  0  0  0  0  0  0
   -3.1240    1.8037    0.0000 C   0  0  0  0  0  0  0  0  0  0  0  0
   -2.9672    0.3119    0.0000 N   0  0  0  0  0  0  0  0  0  0  0  0
   -4.0819   -0.6918    0.0000 C   0  0  0  0  0  0  0  0  0  0  0  0
   -1.4418    3.8810    0.0000 C   0  0  0  0  0  0  0  0  0  0  0  0
   -0.0715    4.4911    0.0000 C   0  0  0  0  0  0  0  0  0  0  0  0
   -0.2283    5.9829    0.0000 C   0  0  0  0  0  0  0  0  0  0  0  0
    0.7754    7.0976    0.0000 N   0  0  0  0  0  0  0  0  0  0  0  0
    0.3119    8.5242    0.0000 C   0  0  0  0  0  0  0  0  0  0  0  0
   -1.1554    8.8360    0.0000 C   0  0  0  0  0  0  0  0  0  0  0  0
   -2.1590    7.7213    0.0000 N   0  0  0  0  0  0  0  0  0  0  0  0
   -1.6955    6.2947    0.0000 C   0  0  0  0  0  0  0  0  0  0  0  0
   -2.4455    4.9957    0.0000 N   0  0  0  0  0  0  0  0  0  0  0  0
  1  2  1  0
  2  3  1  0
  3  4  2  0
  4  5  1  0
  5  6  2  0
  6  7  1  0
  7  8  2  0
  7  9  1  0
  9 10  2  0
 10 11  1  0
 11 12  1  0
  9 13  1  0
 13 14  2  0
 14 15  1  0
 15 16  2  0
 16 17  1  0
 17 18  2  0
 18 19  1  0
 19 20  2  0
 20 21  1  0
  8  3  1  0
 11  6  1  0
 21 13  1  0
 20 15  1  0
M  END
>  <Molecule>  (770) 
CHEMBL1233887

>  <Standard Type>  (770) 
Ki

>  <Standard Relation>  (770) 
>

>  <Standard Value>  (770) 
5011.87

>  <Standard Units>  (770) 
nM

>  <pChEMBL Value>  (770) 
nan

>  <Comment>  (770) 
inactive

>  <Compound Key>  (770) 
SID103904864

>  <Assay>  (770) 
CHEMBL1963742

>  <Assay Description>  (770) 
PUBCHEM_BIOASSAY: Navigating the Kinome. (Class of assay: other) Panel member name: JAK3

>  <BAO Format>  (770) 
assay format

>  <Target>  (770) 
CHEMBL2148

>  <Target Pref. Name>  (770) 
Tyrosine-protein kinase JAK3

>  <Target Organism>  (770) 
Homo sapiens

>  <Target Type>  (770) 
SINGLE PROTEIN

>  <Document>  (770) 
CHEMBL1201862

>  <Source>  (770) 
PubChem BioAssays

>  <Max Phase>  (770) 
0

>  <#Ro5 Violations>  (770) 
0

>  <Molecular Weight>  (770) 
278.31

>  <Ligand Efficiency BEI>  (770) 
nan

>  <Ligand Efficiency LE>  (770) 
nan

>  <Ligand Efficiency LLE>  (770) 
nan

>  <Ligand Efficiency SEI>  (770) 
nan

>  <ALogP>  (770) 
3.13

>  <Assay Organism>  (770) 
nan

>  <Assay Tissue ChEMBL ID>  (770) 
nan

>  <Assay Tissue Name>  (770) 
nan

>  <Assay Cell Type>  (770) 
nan

>  <Assay Subcellular Fraction>  (770) 
nan

>  <Organism Tax ID>  (770) 
9606

>  <BAO Format ID>  (770) 
BAO_0000019

>  <Published Type>  (770) 
nan

>  <Published Relation>  (770) 
nan

>  <Published Value>  (770) 
nan

>  <Published Units>  (770) 
nan

>  <Canonical Smiles>  (770) 
COc1ccc2c(c1)c(cn2C)c3cc4nccnc4[nH]3

>  <Data Validity Comment>  (770) 
nan

>  <Document Journal>  (770) 
nan

>  <Document Year>  (770) 
nan

>  <SRC ID>  (770) 
7

>  <UO Units>  (770) 
UO_0000065

>  <Potential Duplicate>  (770) 
False

>  <Class>  (770) 
0

$$$$

     RDKit          2D

 27 30  0  0  0  0  0  0  0  0999 V2000
    3.3594   -9.9537    0.0000 C   0  0  0  0  0  0  0  0  0  0  0  0
    2.2447   -8.9500    0.0000 C   0  0  0  0  0  0  0  0  0  0  0  0
    2.5565   -7.4827    0.0000 O   0  0  0  0  0  0  0  0  0  0  0  0
    1.4418   -6.4791    0.0000 C   0  0  0  0  0  0  0  0  0  0  0  0
    0.0152   -6.9426    0.0000 O   0  0  0  0  0  0  0  0  0  0  0  0
    1.7537   -5.0118    0.0000 C   0  0  0  0  0  0  0  0  0  0  0  0
    3.1240   -4.4017    0.0000 C   0  0  0  0  0  0  0  0  0  0  0  0
    4.4231   -5.1517    0.0000 C   0  0  0  0  0  0  0  0  0  0  0  0
    2.9672   -2.9099    0.0000 N   0  0  0  0  0  0  0  0  0  0  0  0
    4.0819   -1.9062    0.0000 C   0  0  0  0  0  0  0  0  0  0  0  0
    5.5085   -2.3698    0.0000 C   0  0  0  0  0  0  0  0  0  0  0  0
    6.6232   -1.3661    0.0000 C   0  0  0  0  0  0  0  0  0  0  0  0
    6.3114    0.1011    0.0000 C   0  0  0  0  0  0  0  0  0  0  0  0
    7.4261    1.1048    0.0000 I   0  0  0  0  0  0  0  0  0  0  0  0
    4.8848    0.5647    0.0000 C   0  0  0  0  0  0  0  0  0  0  0  0
    3.7701   -0.4390    0.0000 C   0  0  0  0  0  0  0  0  0  0  0  0
    1.5000   -2.5981    0.0000 C   0  0  0  0  0  0  0  0  0  0  0  0
    0.7500   -1.2990    0.0000 C   0  0  0  0  0  0  0  0  0  0  0  0
    1.5000    0.0000    0.0000 C   0  0  0  0  0  0  0  0  0  0  0  0
    0.7500    1.2990    0.0000 C   0  0  0  0  0  0  0  0  0  0  0  0
   -0.7500    1.2990    0.0000 C   0  0  0  0  0  0  0  0  0  0  0  0
   -1.5000    0.0000    0.0000 C   0  0  0  0  0  0  0  0  0  0  0  0
   -0.7500   -1.2990    0.0000 C   0  0  0  0  0  0  0  0  0  0  0  0
   -1.5000   -2.5981    0.0000 C   0  0  0  0  0  0  0  0  0  0  0  0
   -3.0000   -2.5981    0.0000 O   0  0  0  0  0  0  0  0  0  0  0  0
   -0.7500   -3.8971    0.0000 C   0  0  0  0  0  0  0  0  0  0  0  0
    0.7500   -3.8971    0.0000 C   0  0  0  0  0  0  0  0  0  0  0  0
  1  2  1  0
  2  3  1  0
  3  4  1  0
  4  5  2  0
  4  6  1  0
  6  7  2  0
  7  8  1  0
  7  9  1  0
  9 10  1  0
 10 11  2  0
 11 12  1  0
 12 13  2  0
 13 14  1  0
 13 15  1  0
 15 16  2  0
  9 17  1  0
 17 18  2  0
 18 19  1  0
 19 20  2  0
 20 21  1  0
 21 22  2  0
 22 23  1  0
 23 24  2  0
 24 25  1  0
 24 26  1  0
 26 27  2  0
 27  6  1  0
 16 10  1  0
 27 17  1  0
 23 18  1  0
M  END
>  <Molecule>  (771) 
CHEMBL1970352

>  <Standard Type>  (771) 
Ki

>  <Standard Relation>  (771) 
=

>  <Standard Value>  (771) 
1995.26

>  <Standard Units>  (771) 
nM

>  <pChEMBL Value>  (771) 
5.7

>  <Comment>  (771) 
active

>  <Compound Key>  (771) 
SID103905615

>  <Assay>  (771) 
CHEMBL1963742

>  <Assay Description>  (771) 
PUBCHEM_BIOASSAY: Navigating the Kinome. (Class of assay: other) Panel member name: JAK3

>  <BAO Format>  (771) 
assay format

>  <Target>  (771) 
CHEMBL2148

>  <Target Pref. Name>  (771) 
Tyrosine-protein kinase JAK3

>  <Target Organism>  (771) 
Homo sapiens

>  <Target Type>  (771) 
SINGLE PROTEIN

>  <Document>  (771) 
CHEMBL1201862

>  <Source>  (771) 
PubChem BioAssays

>  <Max Phase>  (771) 
0

>  <#Ro5 Violations>  (771) 
1

>  <Molecular Weight>  (771) 
471.29

>  <Ligand Efficiency BEI>  (771) 
nan

>  <Ligand Efficiency LE>  (771) 
nan

>  <Ligand Efficiency LLE>  (771) 
nan

>  <Ligand Efficiency SEI>  (771) 
nan

>  <ALogP>  (771) 
5.58

>  <Assay Organism>  (771) 
nan

>  <Assay Tissue ChEMBL ID>  (771) 
nan

>  <Assay Tissue Name>  (771) 
nan

>  <Assay Cell Type>  (771) 
nan

>  <Assay Subcellular Fraction>  (771) 
nan

>  <Organism Tax ID>  (771) 
9606

>  <BAO Format ID>  (771) 
BAO_0000019

>  <Published Type>  (771) 
nan

>  <Published Relation>  (771) 
nan

>  <Published Value>  (771) 
nan

>  <Published Units>  (771) 
nan

>  <Canonical Smiles>  (771) 
CCOC(=O)c1c(C)n(c2ccc(I)cc2)c3c4ccccc4c(O)cc13

>  <Data Validity Comment>  (771) 
nan

>  <Document Journal>  (771) 
nan

>  <Document Year>  (771) 
nan

>  <SRC ID>  (771) 
7

>  <UO Units>  (771) 
UO_0000065

>  <Potential Duplicate>  (771) 
False

>  <Class>  (771) 
1

$$$$

     RDKit          2D

 38 41  0  0  0  0  0  0  0  0999 V2000
   -7.5275  -10.5000    0.0000 C   0  0  0  0  0  0  0  0  0  0  0  0
   -6.2284   -9.7500    0.0000 C   0  0  0  0  0  0  0  0  0  0  0  0
   -6.2284   -8.2500    0.0000 N   0  0  0  0  0  0  0  0  0  0  0  0
   -7.5275   -7.5000    0.0000 C   0  0  0  0  0  0  0  0  0  0  0  0
   -8.8265   -8.2500    0.0000 C   0  0  0  0  0  0  0  0  0  0  0  0
   -4.9294   -7.5000    0.0000 C   0  0  0  0  0  0  0  0  0  0  0  0
   -4.9294   -6.0000    0.0000 C   0  0  0  0  0  0  0  0  0  0  0  0
   -3.6304   -5.2500    0.0000 C   0  0  0  0  0  0  0  0  0  0  0  0
   -3.6304   -3.7500    0.0000 N   0  0  0  0  0  0  0  0  0  0  0  0
   -2.3313   -3.0000    0.0000 C   0  0  0  0  0  0  0  0  0  0  0  0
   -1.0323   -3.7500    0.0000 O   0  0  0  0  0  0  0  0  0  0  0  0
   -2.3313   -1.5000    0.0000 C   0  0  0  0  0  0  0  0  0  0  0  0
   -3.6304   -0.7500    0.0000 C   0  0  0  0  0  0  0  0  0  0  0  0
   -3.6304    0.7500    0.0000 N   0  0  0  0  0  0  0  0  0  0  0  0
   -2.3313    1.5000    0.0000 C   0  0  0  0  0  0  0  0  0  0  0  0
   -2.3313    3.0000    0.0000 N   0  0  0  0  0  0  0  0  0  0  0  0
   -1.0323    0.7500    0.0000 C   0  0  0  0  0  0  0  0  0  0  0  0
    0.3943    1.2135    0.0000 C   0  0  0  0  0  0  0  0  0  0  0  0
    1.2760    0.0000    0.0000 C   0  0  0  0  0  0  0  0  0  0  0  0
    0.3943   -1.2135    0.0000 S   0  0  0  0  0  0  0  0  0  0  0  0
   -1.0323   -0.7500    0.0000 C   0  0  0  0  0  0  0  0  0  0  0  0
    0.8578    2.6401    0.0000 C   0  0  0  0  0  0  0  0  0  0  0  0
    2.3250    2.9520    0.0000 C   0  0  0  0  0  0  0  0  0  0  0  0
    2.7886    4.3786    0.0000 C   0  0  0  0  0  0  0  0  0  0  0  0
    1.7849    5.4933    0.0000 C   0  0  0  0  0  0  0  0  0  0  0  0
    2.2484    6.9199    0.0000 N   0  0  0  0  0  0  0  0  0  0  0  0
    3.7156    7.2317    0.0000 C   0  0  0  0  0  0  0  0  0  0  0  0
    4.7193    6.1170    0.0000 O   0  0  0  0  0  0  0  0  0  0  0  0
    4.1791    8.6583    0.0000 N   0  0  0  0  0  0  0  0  0  0  0  0
    5.6464    8.9702    0.0000 C   0  0  0  0  0  0  0  0  0  0  0  0
    6.6501    7.8555    0.0000 C   0  0  0  0  0  0  0  0  0  0  0  0
    8.1173    8.1673    0.0000 C   0  0  0  0  0  0  0  0  0  0  0  0
    8.5808    9.5939    0.0000 C   0  0  0  0  0  0  0  0  0  0  0  0
    7.5771   10.7086    0.0000 C   0  0  0  0  0  0  0  0  0  0  0  0
    8.0406   12.1352    0.0000 F   0  0  0  0  0  0  0  0  0  0  0  0
    6.1099   10.3968    0.0000 C   0  0  0  0  0  0  0  0  0  0  0  0
    0.3177    5.1814    0.0000 C   0  0  0  0  0  0  0  0  0  0  0  0
   -0.1459    3.7548    0.0000 C   0  0  0  0  0  0  0  0  0  0  0  0
  1  2  1  0
  2  3  1  0
  3  4  1  0
  4  5  1  0
  3  6  1  0
  6  7  1  0
  7  8  1  0
  8  9  1  0
  9 10  1  0
 10 11  2  0
 10 12  1  0
 12 13  2  0
 13 14  1  0
 14 15  2  0
 15 16  1  0
 15 17  1  0
 17 18  1  0
 18 19  2  0
 19 20  1  0
 20 21  1  0
 18 22  1  0
 22 23  2  0
 23 24  1  0
 24 25  2  0
 25 26  1  0
 26 27  1  0
 27 28  2  0
 27 29  1  0
 29 30  1  0
 30 31  2  0
 31 32  1  0
 32 33  2  0
 33 34  1  0
 34 35  1  0
 34 36  2  0
 25 37  1  0
 37 38  2  0
 21 12  1  0
 21 17  2  0
 38 22  1  0
 36 30  1  0
M  END
>  <Molecule>  (772) 
CHEMBL1996649

>  <Standard Type>  (772) 
Ki

>  <Standard Relation>  (772) 
=

>  <Standard Value>  (772) 
50.12

>  <Standard Units>  (772) 
nM

>  <pChEMBL Value>  (772) 
7.3

>  <Comment>  (772) 
active

>  <Compound Key>  (772) 
SID103904324

>  <Assay>  (772) 
CHEMBL1963742

>  <Assay Description>  (772) 
PUBCHEM_BIOASSAY: Navigating the Kinome. (Class of assay: other) Panel member name: JAK3

>  <BAO Format>  (772) 
assay format

>  <Target>  (772) 
CHEMBL2148

>  <Target Pref. Name>  (772) 
Tyrosine-protein kinase JAK3

>  <Target Organism>  (772) 
Homo sapiens

>  <Target Type>  (772) 
SINGLE PROTEIN

>  <Document>  (772) 
CHEMBL1201862

>  <Source>  (772) 
PubChem BioAssays

>  <Max Phase>  (772) 
0

>  <#Ro5 Violations>  (772) 
2

>  <Molecular Weight>  (772) 
534.66

>  <Ligand Efficiency BEI>  (772) 
nan

>  <Ligand Efficiency LE>  (772) 
nan

>  <Ligand Efficiency LLE>  (772) 
nan

>  <Ligand Efficiency SEI>  (772) 
nan

>  <ALogP>  (772) 
5.79

>  <Assay Organism>  (772) 
nan

>  <Assay Tissue ChEMBL ID>  (772) 
nan

>  <Assay Tissue Name>  (772) 
nan

>  <Assay Cell Type>  (772) 
nan

>  <Assay Subcellular Fraction>  (772) 
nan

>  <Organism Tax ID>  (772) 
9606

>  <BAO Format ID>  (772) 
BAO_0000019

>  <Published Type>  (772) 
nan

>  <Published Relation>  (772) 
nan

>  <Published Value>  (772) 
nan

>  <Published Units>  (772) 
nan

>  <Canonical Smiles>  (772) 
CCN(CC)CCCNC(=O)c1cnc(N)c2c(csc12)c3ccc(NC(=O)Nc4cccc(F)c4)cc3

>  <Data Validity Comment>  (772) 
nan

>  <Document Journal>  (772) 
nan

>  <Document Year>  (772) 
nan

>  <SRC ID>  (772) 
7

>  <UO Units>  (772) 
UO_0000065

>  <Potential Duplicate>  (772) 
False

>  <Class>  (772) 
1

$$$$

     RDKit          2D

 29 32  0  0  0  0  0  0  0  0999 V2000
   -0.7500  -14.2894    0.0000 C   0  0  0  0  0  0  0  0  0  0  0  0
    0.7500  -14.2894    0.0000 O   0  0  0  0  0  0  0  0  0  0  0  0
    1.5000  -12.9904    0.0000 C   0  0  0  0  0  0  0  0  0  0  0  0
    0.7500  -11.6913    0.0000 C   0  0  0  0  0  0  0  0  0  0  0  0
    1.5000  -10.3923    0.0000 C   0  0  0  0  0  0  0  0  0  0  0  0
    3.0000  -10.3923    0.0000 C   0  0  0  0  0  0  0  0  0  0  0  0
    3.7500   -9.0933    0.0000 N   0  0  0  0  0  0  0  0  0  0  0  0
    3.0000   -7.7942    0.0000 C   0  0  0  0  0  0  0  0  0  0  0  0
    1.5000   -7.7942    0.0000 O   0  0  0  0  0  0  0  0  0  0  0  0
    3.7500   -6.4952    0.0000 N   0  0  0  0  0  0  0  0  0  0  0  0
    3.0000   -5.1962    0.0000 C   0  0  0  0  0  0  0  0  0  0  0  0
    3.7500   -3.8971    0.0000 C   0  0  0  0  0  0  0  0  0  0  0  0
    3.0000   -2.5981    0.0000 C   0  0  0  0  0  0  0  0  0  0  0  0
    1.5000   -2.5981    0.0000 C   0  0  0  0  0  0  0  0  0  0  0  0
    0.7500   -3.8971    0.0000 C   0  0  0  0  0  0  0  0  0  0  0  0
    1.5000   -5.1962    0.0000 C   0  0  0  0  0  0  0  0  0  0  0  0
    0.7500   -1.2990    0.0000 C   0  0  0  0  0  0  0  0  0  0  0  0
    1.5000    0.0000    0.0000 C   0  0  0  0  0  0  0  0  0  0  0  0
    0.7500    1.2990    0.0000 C   0  0  0  0  0  0  0  0  0  0  0  0
   -0.7500    1.2990    0.0000 C   0  0  0  0  0  0  0  0  0  0  0  0
   -1.5000    0.0000    0.0000 C   0  0  0  0  0  0  0  0  0  0  0  0
   -2.9672   -0.3119    0.0000 O   0  0  0  0  0  0  0  0  0  0  0  0
   -3.1240   -1.8037    0.0000 N   0  0  0  0  0  0  0  0  0  0  0  0
   -1.7537   -2.4138    0.0000 C   0  0  0  0  0  0  0  0  0  0  0  0
   -1.4418   -3.8810    0.0000 N   0  0  0  0  0  0  0  0  0  0  0  0
   -0.7500   -1.2990    0.0000 C   0  0  0  0  0  0  0  0  0  0  0  0
    3.7500  -11.6913    0.0000 C   0  0  0  0  0  0  0  0  0  0  0  0
    3.0000  -12.9904    0.0000 C   0  0  0  0  0  0  0  0  0  0  0  0
    3.7500  -14.2894    0.0000 Cl  0  0  0  0  0  0  0  0  0  0  0  0
  1  2  1  0
  2  3  1  0
  3  4  2  0
  4  5  1  0
  5  6  2  0
  6  7  1  0
  7  8  1  0
  8  9  2  0
  8 10  1  0
 10 11  1  0
 11 12  2  0
 12 13  1  0
 13 14  2  0
 14 15  1  0
 15 16  2  0
 14 17  1  0
 17 18  2  0
 18 19  1  0
 19 20  2  0
 20 21  1  0
 21 22  1  0
 22 23  1  0
 23 24  2  0
 24 25  1  0
 24 26  1  0
  6 27  1  0
 27 28  2  0
 28 29  1  0
 28  3  1  0
 16 11  1  0
 26 17  1  0
 26 21  2  0
M  END
>  <Molecule>  (773) 
CHEMBL272453

>  <Standard Type>  (773) 
Ki

>  <Standard Relation>  (773) 
>

>  <Standard Value>  (773) 
1584.89

>  <Standard Units>  (773) 
nM

>  <pChEMBL Value>  (773) 
nan

>  <Comment>  (773) 
inactive

>  <Compound Key>  (773) 
SID103904857

>  <Assay>  (773) 
CHEMBL1963742

>  <Assay Description>  (773) 
PUBCHEM_BIOASSAY: Navigating the Kinome. (Class of assay: other) Panel member name: JAK3

>  <BAO Format>  (773) 
assay format

>  <Target>  (773) 
CHEMBL2148

>  <Target Pref. Name>  (773) 
Tyrosine-protein kinase JAK3

>  <Target Organism>  (773) 
Homo sapiens

>  <Target Type>  (773) 
SINGLE PROTEIN

>  <Document>  (773) 
CHEMBL1201862

>  <Source>  (773) 
PubChem BioAssays

>  <Max Phase>  (773) 
0

>  <#Ro5 Violations>  (773) 
1

>  <Molecular Weight>  (773) 
408.85

>  <Ligand Efficiency BEI>  (773) 
nan

>  <Ligand Efficiency LE>  (773) 
nan

>  <Ligand Efficiency LLE>  (773) 
nan

>  <Ligand Efficiency SEI>  (773) 
nan

>  <ALogP>  (773) 
5.38

>  <Assay Organism>  (773) 
nan

>  <Assay Tissue ChEMBL ID>  (773) 
nan

>  <Assay Tissue Name>  (773) 
nan

>  <Assay Cell Type>  (773) 
nan

>  <Assay Subcellular Fraction>  (773) 
nan

>  <Organism Tax ID>  (773) 
9606

>  <BAO Format ID>  (773) 
BAO_0000019

>  <Published Type>  (773) 
nan

>  <Published Relation>  (773) 
nan

>  <Published Value>  (773) 
nan

>  <Published Units>  (773) 
nan

>  <Canonical Smiles>  (773) 
COc1ccc(NC(=O)Nc2ccc(cc2)c3cccc4onc(N)c34)cc1Cl

>  <Data Validity Comment>  (773) 
nan

>  <Document Journal>  (773) 
nan

>  <Document Year>  (773) 
nan

>  <SRC ID>  (773) 
7

>  <UO Units>  (773) 
UO_0000065

>  <Potential Duplicate>  (773) 
False

>  <Class>  (773) 
0

$$$$

     RDKit          2D

 32 35  0  0  0  0  0  0  0  0999 V2000
    3.7500  -14.2894    0.0000 C   0  0  0  0  0  0  0  0  0  0  0  0
    3.0000  -12.9904    0.0000 C   0  0  0  0  0  0  0  0  0  0  0  0
    1.5000  -12.9904    0.0000 C   0  0  0  0  0  0  0  0  0  0  0  0
    0.7500  -11.6913    0.0000 C   0  0  0  0  0  0  0  0  0  0  0  0
   -0.7500  -11.6913    0.0000 C   0  0  0  0  0  0  0  0  0  0  0  0
    1.5000  -10.3923    0.0000 C   0  0  0  0  0  0  0  0  0  0  0  0
    3.0000  -10.3923    0.0000 C   0  0  0  0  0  0  0  0  0  0  0  0
    3.7500   -9.0933    0.0000 N   0  0  0  0  0  0  0  0  0  0  0  0
    3.0000   -7.7942    0.0000 C   0  0  0  0  0  0  0  0  0  0  0  0
    1.5000   -7.7942    0.0000 O   0  0  0  0  0  0  0  0  0  0  0  0
    3.7500   -6.4952    0.0000 N   0  0  0  0  0  0  0  0  0  0  0  0
    3.0000   -5.1962    0.0000 C   0  0  0  0  0  0  0  0  0  0  0  0
    3.7500   -3.8971    0.0000 C   0  0  0  0  0  0  0  0  0  0  0  0
    3.0000   -2.5981    0.0000 C   0  0  0  0  0  0  0  0  0  0  0  0
    1.5000   -2.5981    0.0000 C   0  0  0  0  0  0  0  0  0  0  0  0
    0.7500   -1.2990    0.0000 C   0  0  0  0  0  0  0  0  0  0  0  0
    1.5000    0.0000    0.0000 C   0  0  0  0  0  0  0  0  0  0  0  0
    0.7500    1.2990    0.0000 C   0  0  0  0  0  0  0  0  0  0  0  0
   -0.7500    1.2990    0.0000 C   0  0  0  0  0  0  0  0  0  0  0  0
   -1.5000    0.0000    0.0000 C   0  0  0  0  0  0  0  0  0  0  0  0
   -2.9672   -0.3119    0.0000 C   0  0  0  0  0  0  0  0  0  0  0  0
   -4.0819    0.6918    0.0000 O   0  0  0  0  0  0  0  0  0  0  0  0
   -3.1240   -1.8037    0.0000 N   0  0  0  0  0  0  0  0  0  0  0  0
   -1.7537   -2.4138    0.0000 C   0  0  0  0  0  0  0  0  0  0  0  0
   -0.7500   -1.2990    0.0000 C   0  0  0  0  0  0  0  0  0  0  0  0
    0.7500   -3.8971    0.0000 C   0  0  0  0  0  0  0  0  0  0  0  0
    1.5000   -5.1962    0.0000 C   0  0  0  0  0  0  0  0  0  0  0  0
   -0.7500   -3.8971    0.0000 C   0  0  0  0  0  0  0  0  0  0  0  0
   -2.2500   -3.8971    0.0000 F   0  0  0  0  0  0  0  0  0  0  0  0
   -0.7500   -5.3971    0.0000 F   0  0  0  0  0  0  0  0  0  0  0  0
   -0.7500   -2.3971    0.0000 F   0  0  0  0  0  0  0  0  0  0  0  0
    3.7500  -11.6913    0.0000 C   0  0  0  0  0  0  0  0  0  0  0  0
  1  2  1  0
  2  3  2  0
  3  4  1  0
  4  5  1  0
  4  6  2  0
  6  7  1  0
  7  8  1  0
  8  9  1  0
  9 10  2  0
  9 11  1  0
 11 12  1  0
 12 13  2  0
 13 14  1  0
 14 15  2  0
 15 16  1  0
 16 17  2  0
 17 18  1  0
 18 19  2  0
 19 20  1  0
 20 21  1  0
 21 22  2  0
 21 23  1  0
 23 24  1  0
 24 25  1  0
 15 26  1  0
 26 27  2  0
 26 28  1  0
 28 29  1  0
 28 30  1  0
 28 31  1  0
  7 32  2  0
 32  2  1  0
 27 12  1  0
 25 16  1  0
 25 20  2  0
M  END
>  <Molecule>  (774) 
CHEMBL1971021

>  <Standard Type>  (774) 
Ki

>  <Standard Relation>  (774) 
>

>  <Standard Value>  (774) 
1584.89

>  <Standard Units>  (774) 
nM

>  <pChEMBL Value>  (774) 
nan

>  <Comment>  (774) 
inactive

>  <Compound Key>  (774) 
SID103904332

>  <Assay>  (774) 
CHEMBL1963742

>  <Assay Description>  (774) 
PUBCHEM_BIOASSAY: Navigating the Kinome. (Class of assay: other) Panel member name: JAK3

>  <BAO Format>  (774) 
assay format

>  <Target>  (774) 
CHEMBL2148

>  <Target Pref. Name>  (774) 
Tyrosine-protein kinase JAK3

>  <Target Organism>  (774) 
Homo sapiens

>  <Target Type>  (774) 
SINGLE PROTEIN

>  <Document>  (774) 
CHEMBL1201862

>  <Source>  (774) 
PubChem BioAssays

>  <Max Phase>  (774) 
0

>  <#Ro5 Violations>  (774) 
1

>  <Molecular Weight>  (774) 
439.44

>  <Ligand Efficiency BEI>  (774) 
nan

>  <Ligand Efficiency LE>  (774) 
nan

>  <Ligand Efficiency LLE>  (774) 
nan

>  <Ligand Efficiency SEI>  (774) 
nan

>  <ALogP>  (774) 
5.88

>  <Assay Organism>  (774) 
nan

>  <Assay Tissue ChEMBL ID>  (774) 
nan

>  <Assay Tissue Name>  (774) 
nan

>  <Assay Cell Type>  (774) 
nan

>  <Assay Subcellular Fraction>  (774) 
nan

>  <Organism Tax ID>  (774) 
9606

>  <BAO Format ID>  (774) 
BAO_0000019

>  <Published Type>  (774) 
nan

>  <Published Relation>  (774) 
nan

>  <Published Value>  (774) 
nan

>  <Published Units>  (774) 
nan

>  <Canonical Smiles>  (774) 
Cc1cc(C)cc(NC(=O)Nc2ccc(c3cccc4C(=O)NCc34)c(c2)C(F)(F)F)c1

>  <Data Validity Comment>  (774) 
nan

>  <Document Journal>  (774) 
nan

>  <Document Year>  (774) 
nan

>  <SRC ID>  (774) 
7

>  <UO Units>  (774) 
UO_0000065

>  <Potential Duplicate>  (774) 
False

>  <Class>  (774) 
0

$$$$

     RDKit          2D

 24 27  0  0  0  0  0  0  0  0999 V2000
    6.0000   -5.1962    0.0000 N   0  0  0  0  0  0  0  0  0  0  0  0
    5.2500   -3.8971    0.0000 C   0  0  0  0  0  0  0  0  0  0  0  0
    6.0000   -2.5981    0.0000 O   0  0  0  0  0  0  0  0  0  0  0  0
    3.7500   -3.8971    0.0000 C   0  0  0  0  0  0  0  0  0  0  0  0
    3.0000   -5.1962    0.0000 C   0  0  0  0  0  0  0  0  0  0  0  0
    1.5000   -5.1962    0.0000 C   0  0  0  0  0  0  0  0  0  0  0  0
    0.7500   -3.8971    0.0000 C   0  0  0  0  0  0  0  0  0  0  0  0
    1.5000   -2.5981    0.0000 C   0  0  0  0  0  0  0  0  0  0  0  0
    3.0000   -2.5981    0.0000 C   0  0  0  0  0  0  0  0  0  0  0  0
    0.7500   -1.2990    0.0000 C   0  0  0  0  0  0  0  0  0  0  0  0
    1.5000    0.0000    0.0000 C   0  0  0  0  0  0  0  0  0  0  0  0
    0.7500    1.2990    0.0000 N   0  0  0  0  0  0  0  0  0  0  0  0
   -0.7500    1.2990    0.0000 C   0  0  0  0  0  0  0  0  0  0  0  0
   -1.7537    2.4138    0.0000 N   0  0  0  0  0  0  0  0  0  0  0  0
   -3.1240    1.8037    0.0000 C   0  0  0  0  0  0  0  0  0  0  0  0
   -2.9672    0.3119    0.0000 C   0  0  0  0  0  0  0  0  0  0  0  0
   -4.0819   -0.6918    0.0000 C   0  0  0  0  0  0  0  0  0  0  0  0
   -5.5085   -0.2283    0.0000 C   0  0  0  0  0  0  0  0  0  0  0  0
   -6.6232   -1.2320    0.0000 C   0  0  0  0  0  0  0  0  0  0  0  0
   -6.3114   -2.6992    0.0000 C   0  0  0  0  0  0  0  0  0  0  0  0
   -4.8848   -3.1627    0.0000 C   0  0  0  0  0  0  0  0  0  0  0  0
   -3.7701   -2.1590    0.0000 C   0  0  0  0  0  0  0  0  0  0  0  0
   -1.5000    0.0000    0.0000 C   0  0  0  0  0  0  0  0  0  0  0  0
   -0.7500   -1.2990    0.0000 C   0  0  0  0  0  0  0  0  0  0  0  0
  1  2  1  0
  2  3  2  0
  2  4  1  0
  4  5  2  0
  5  6  1  0
  6  7  2  0
  7  8  1  0
  8  9  2  0
  8 10  1  0
 10 11  2  0
 11 12  1  0
 12 13  2  0
 13 14  1  0
 14 15  1  0
 15 16  2  0
 16 17  1  0
 17 18  2  0
 18 19  1  0
 19 20  2  0
 20 21  1  0
 21 22  2  0
 16 23  1  0
 23 24  2  0
  9  4  1  0
 24 10  1  0
 23 13  1  0
 22 17  1  0
M  END
>  <Molecule>  (775) 
CHEMBL1982957

>  <Standard Type>  (775) 
Ki

>  <Standard Relation>  (775) 
=

>  <Standard Value>  (775) 
125.89

>  <Standard Units>  (775) 
nM

>  <pChEMBL Value>  (775) 
6.9

>  <Comment>  (775) 
active

>  <Compound Key>  (775) 
SID103904195

>  <Assay>  (775) 
CHEMBL1963742

>  <Assay Description>  (775) 
PUBCHEM_BIOASSAY: Navigating the Kinome. (Class of assay: other) Panel member name: JAK3

>  <BAO Format>  (775) 
assay format

>  <Target>  (775) 
CHEMBL2148

>  <Target Pref. Name>  (775) 
Tyrosine-protein kinase JAK3

>  <Target Organism>  (775) 
Homo sapiens

>  <Target Type>  (775) 
SINGLE PROTEIN

>  <Document>  (775) 
CHEMBL1201862

>  <Source>  (775) 
PubChem BioAssays

>  <Max Phase>  (775) 
0

>  <#Ro5 Violations>  (775) 
0

>  <Molecular Weight>  (775) 
313.36

>  <Ligand Efficiency BEI>  (775) 
nan

>  <Ligand Efficiency LE>  (775) 
nan

>  <Ligand Efficiency LLE>  (775) 
nan

>  <Ligand Efficiency SEI>  (775) 
nan

>  <ALogP>  (775) 
4.0

>  <Assay Organism>  (775) 
nan

>  <Assay Tissue ChEMBL ID>  (775) 
nan

>  <Assay Tissue Name>  (775) 
nan

>  <Assay Cell Type>  (775) 
nan

>  <Assay Subcellular Fraction>  (775) 
nan

>  <Organism Tax ID>  (775) 
9606

>  <BAO Format ID>  (775) 
BAO_0000019

>  <Published Type>  (775) 
nan

>  <Published Relation>  (775) 
nan

>  <Published Value>  (775) 
nan

>  <Published Units>  (775) 
nan

>  <Canonical Smiles>  (775) 
NC(=O)c1cccc(c1)c2cnc3[nH]cc(c4ccccc4)c3c2

>  <Data Validity Comment>  (775) 
nan

>  <Document Journal>  (775) 
nan

>  <Document Year>  (775) 
nan

>  <SRC ID>  (775) 
7

>  <UO Units>  (775) 
UO_0000065

>  <Potential Duplicate>  (775) 
False

>  <Class>  (775) 
1

$$$$

     RDKit          2D

 15 17  0  0  0  0  0  0  0  0999 V2000
    3.0000    0.0000    0.0000 N   0  0  0  0  0  0  0  0  0  0  0  0
    1.5000    0.0000    0.0000 C   0  0  0  0  0  0  0  0  0  0  0  0
    0.7500   -1.2990    0.0000 N   0  0  0  0  0  0  0  0  0  0  0  0
   -0.7500   -1.2990    0.0000 C   0  0  0  0  0  0  0  0  0  0  0  0
   -1.5000    0.0000    0.0000 N   0  0  0  0  0  0  0  0  0  0  0  0
   -0.7500    1.2990    0.0000 C   0  0  0  0  0  0  0  0  0  0  0  0
    0.7500    1.2990    0.0000 C   0  0  0  0  0  0  0  0  0  0  0  0
    1.2135    2.7256    0.0000 S   0  0  0  0  0  0  0  0  0  0  0  0
    0.0000    3.6073    0.0000 C   0  0  0  0  0  0  0  0  0  0  0  0
   -0.1568    5.0991    0.0000 N   0  0  0  0  0  0  0  0  0  0  0  0
   -1.5271    5.7092    0.0000 C   0  0  0  0  0  0  0  0  0  0  0  0
   -2.7406    4.8275    0.0000 N   0  0  0  0  0  0  0  0  0  0  0  0
   -2.5838    3.3357    0.0000 C   0  0  0  0  0  0  0  0  0  0  0  0
   -3.7974    2.4540    0.0000 N   0  0  0  0  0  0  0  0  0  0  0  0
   -1.2135    2.7256    0.0000 C   0  0  0  0  0  0  0  0  0  0  0  0
  1  2  1  0
  2  3  2  0
  3  4  1  0
  4  5  2  0
  5  6  1  0
  6  7  2  0
  7  8  1  0
  8  9  1  0
  9 10  2  0
 10 11  1  0
 11 12  2  0
 12 13  1  0
 13 14  1  0
 13 15  2  0
  7  2  1  0
 15  6  1  0
 15  9  1  0
M  END
>  <Molecule>  (776) 
CHEMBL1976090

>  <Standard Type>  (776) 
Ki

>  <Standard Relation>  (776) 
>

>  <Standard Value>  (776) 
1584.89

>  <Standard Units>  (776) 
nM

>  <pChEMBL Value>  (776) 
nan

>  <Comment>  (776) 
inactive

>  <Compound Key>  (776) 
SID103905284

>  <Assay>  (776) 
CHEMBL1963742

>  <Assay Description>  (776) 
PUBCHEM_BIOASSAY: Navigating the Kinome. (Class of assay: other) Panel member name: JAK3

>  <BAO Format>  (776) 
assay format

>  <Target>  (776) 
CHEMBL2148

>  <Target Pref. Name>  (776) 
Tyrosine-protein kinase JAK3

>  <Target Organism>  (776) 
Homo sapiens

>  <Target Type>  (776) 
SINGLE PROTEIN

>  <Document>  (776) 
CHEMBL1201862

>  <Source>  (776) 
PubChem BioAssays

>  <Max Phase>  (776) 
0

>  <#Ro5 Violations>  (776) 
0

>  <Molecular Weight>  (776) 
218.25

>  <Ligand Efficiency BEI>  (776) 
nan

>  <Ligand Efficiency LE>  (776) 
nan

>  <Ligand Efficiency LLE>  (776) 
nan

>  <Ligand Efficiency SEI>  (776) 
nan

>  <ALogP>  (776) 
0.8

>  <Assay Organism>  (776) 
nan

>  <Assay Tissue ChEMBL ID>  (776) 
nan

>  <Assay Tissue Name>  (776) 
nan

>  <Assay Cell Type>  (776) 
nan

>  <Assay Subcellular Fraction>  (776) 
nan

>  <Organism Tax ID>  (776) 
9606

>  <BAO Format ID>  (776) 
BAO_0000019

>  <Published Type>  (776) 
nan

>  <Published Relation>  (776) 
nan

>  <Published Value>  (776) 
nan

>  <Published Units>  (776) 
nan

>  <Canonical Smiles>  (776) 
Nc1ncnc2c1sc3ncnc(N)c23

>  <Data Validity Comment>  (776) 
nan

>  <Document Journal>  (776) 
nan

>  <Document Year>  (776) 
nan

>  <SRC ID>  (776) 
7

>  <UO Units>  (776) 
UO_0000065

>  <Potential Duplicate>  (776) 
False

>  <Class>  (776) 
0

$$$$

     RDKit          2D

 21 24  0  0  0  0  0  0  0  0999 V2000
   -4.4752    7.7937    0.0000 C   0  0  0  0  0  0  0  0  0  0  0  0
   -3.3605    8.7974    0.0000 C   0  0  0  0  0  0  0  0  0  0  0  0
   -1.9339    8.3339    0.0000 C   0  0  0  0  0  0  0  0  0  0  0  0
   -0.8192    9.3376    0.0000 C   0  0  0  0  0  0  0  0  0  0  0  0
   -1.1311   10.8048    0.0000 O   0  0  0  0  0  0  0  0  0  0  0  0
   -2.5577   11.2683    0.0000 C   0  0  0  0  0  0  0  0  0  0  0  0
   -3.6724   10.2646    0.0000 C   0  0  0  0  0  0  0  0  0  0  0  0
   -4.1634    6.3265    0.0000 N   0  0  0  0  0  0  0  0  0  0  0  0
   -2.7931    5.7164    0.0000 C   0  0  0  0  0  0  0  0  0  0  0  0
   -2.9499    4.2246    0.0000 C   0  0  0  0  0  0  0  0  0  0  0  0
   -4.4171    3.9127    0.0000 N   0  0  0  0  0  0  0  0  0  0  0  0
   -5.1671    5.2118    0.0000 N   0  0  0  0  0  0  0  0  0  0  0  0
   -1.8351    3.2209    0.0000 C   0  0  0  0  0  0  0  0  0  0  0  0
   -0.4086    3.6844    0.0000 C   0  0  0  0  0  0  0  0  0  0  0  0
    0.7062    2.6807    0.0000 C   0  0  0  0  0  0  0  0  0  0  0  0
    0.3943    1.2135    0.0000 C   0  0  0  0  0  0  0  0  0  0  0  0
    1.2760    0.0000    0.0000 N   0  0  0  0  0  0  0  0  0  0  0  0
    0.3943   -1.2135    0.0000 N   0  0  0  0  0  0  0  0  0  0  0  0
   -1.0323   -0.7500    0.0000 C   0  0  0  0  0  0  0  0  0  0  0  0
   -1.0323    0.7500    0.0000 C   0  0  0  0  0  0  0  0  0  0  0  0
   -2.1470    1.7537    0.0000 C   0  0  0  0  0  0  0  0  0  0  0  0
  1  2  1  0
  2  3  1  0
  3  4  1  0
  4  5  1  0
  5  6  1  0
  6  7  1  0
  1  8  1  0
  8  9  1  0
  9 10  2  0
 10 11  1  0
 11 12  2  0
 10 13  1  0
 13 14  2  0
 14 15  1  0
 15 16  2  0
 16 17  1  0
 17 18  1  0
 18 19  2  0
 19 20  1  0
 20 21  2  0
  7  2  1  0
 12  8  1  0
 21 13  1  0
 20 16  1  0
M  END
>  <Molecule>  (777) 
CHEMBL1969843

>  <Standard Type>  (777) 
Ki

>  <Standard Relation>  (777) 
>

>  <Standard Value>  (777) 
1584.89

>  <Standard Units>  (777) 
nM

>  <pChEMBL Value>  (777) 
nan

>  <Comment>  (777) 
inactive

>  <Compound Key>  (777) 
SID103904517

>  <Assay>  (777) 
CHEMBL1963742

>  <Assay Description>  (777) 
PUBCHEM_BIOASSAY: Navigating the Kinome. (Class of assay: other) Panel member name: JAK3

>  <BAO Format>  (777) 
assay format

>  <Target>  (777) 
CHEMBL2148

>  <Target Pref. Name>  (777) 
Tyrosine-protein kinase JAK3

>  <Target Organism>  (777) 
Homo sapiens

>  <Target Type>  (777) 
SINGLE PROTEIN

>  <Document>  (777) 
CHEMBL1201862

>  <Source>  (777) 
PubChem BioAssays

>  <Max Phase>  (777) 
0

>  <#Ro5 Violations>  (777) 
0

>  <Molecular Weight>  (777) 
283.34

>  <Ligand Efficiency BEI>  (777) 
nan

>  <Ligand Efficiency LE>  (777) 
nan

>  <Ligand Efficiency LLE>  (777) 
nan

>  <Ligand Efficiency SEI>  (777) 
nan

>  <ALogP>  (777) 
2.25

>  <Assay Organism>  (777) 
nan

>  <Assay Tissue ChEMBL ID>  (777) 
nan

>  <Assay Tissue Name>  (777) 
nan

>  <Assay Cell Type>  (777) 
nan

>  <Assay Subcellular Fraction>  (777) 
nan

>  <Organism Tax ID>  (777) 
9606

>  <BAO Format ID>  (777) 
BAO_0000019

>  <Published Type>  (777) 
nan

>  <Published Relation>  (777) 
nan

>  <Published Value>  (777) 
nan

>  <Published Units>  (777) 
nan

>  <Canonical Smiles>  (777) 
C(C1CCOCC1)n2cc(nn2)c3ccc4[nH]ncc4c3

>  <Data Validity Comment>  (777) 
nan

>  <Document Journal>  (777) 
nan

>  <Document Year>  (777) 
nan

>  <SRC ID>  (777) 
7

>  <UO Units>  (777) 
UO_0000065

>  <Potential Duplicate>  (777) 
False

>  <Class>  (777) 
0

$$$$

     RDKit          2D

 20 21  0  0  0  0  0  0  0  0999 V2000
   -4.5960   -3.5353    0.0000 C   0  0  0  0  0  0  0  0  0  0  0  0
   -3.2970   -4.2853    0.0000 C   0  0  0  0  0  0  0  0  0  0  0  0
   -1.9979   -3.5353    0.0000 N   0  0  0  0  0  0  0  0  0  0  0  0
   -0.6989   -4.2853    0.0000 C   0  0  0  0  0  0  0  0  0  0  0  0
    0.7500   -3.8971    0.0000 C   0  0  0  0  0  0  0  0  0  0  0  0
    1.5000   -2.5981    0.0000 N   0  0  0  0  0  0  0  0  0  0  0  0
    0.7500   -1.2990    0.0000 C   0  0  0  0  0  0  0  0  0  0  0  0
    1.5000    0.0000    0.0000 C   0  0  0  0  0  0  0  0  0  0  0  0
    0.7500    1.2990    0.0000 C   0  0  0  0  0  0  0  0  0  0  0  0
   -0.7500    1.2990    0.0000 N   0  0  0  0  0  0  0  0  0  0  0  0
   -1.5000    0.0000    0.0000 C   0  0  0  0  0  0  0  0  0  0  0  0
   -0.7500   -1.2990    0.0000 C   0  0  0  0  0  0  0  0  0  0  0  0
    1.1382   -5.3460    0.0000 C   0  0  0  0  0  0  0  0  0  0  0  0
    2.4373   -6.0960    0.0000 O   0  0  0  0  0  0  0  0  0  0  0  0
   -0.3107   -5.7342    0.0000 C   0  0  0  0  0  0  0  0  0  0  0  0
   -1.0607   -7.0333    0.0000 O   0  0  0  0  0  0  0  0  0  0  0  0
   -3.2970   -5.7853    0.0000 C   0  0  0  0  0  0  0  0  0  0  0  0
   -4.7970   -5.7853    0.0000 C   0  0  0  0  0  0  0  0  0  0  0  0
   -1.7970   -5.7853    0.0000 C   0  0  0  0  0  0  0  0  0  0  0  0
   -3.2970   -7.2853    0.0000 C   0  0  0  0  0  0  0  0  0  0  0  0
  1  2  1  0
  2  3  1  0
  3  4  1  0
  4  5  2  0
  5  6  1  0
  6  7  1  0
  7  8  2  0
  8  9  1  0
  9 10  2  0
 10 11  1  0
 11 12  2  0
  5 13  1  0
 13 14  2  0
 13 15  1  0
 15 16  2  0
  2 17  1  0
 17 18  1  0
 17 19  1  0
 17 20  1  0
 15  4  1  0
 12  7  1  0
M  END
>  <Molecule>  (778) 
CHEMBL1986186

>  <Standard Type>  (778) 
Ki

>  <Standard Relation>  (778) 
>

>  <Standard Value>  (778) 
1584.89

>  <Standard Units>  (778) 
nM

>  <pChEMBL Value>  (778) 
nan

>  <Comment>  (778) 
inactive

>  <Compound Key>  (778) 
SID103904939

>  <Assay>  (778) 
CHEMBL1963742

>  <Assay Description>  (778) 
PUBCHEM_BIOASSAY: Navigating the Kinome. (Class of assay: other) Panel member name: JAK3

>  <BAO Format>  (778) 
assay format

>  <Target>  (778) 
CHEMBL2148

>  <Target Pref. Name>  (778) 
Tyrosine-protein kinase JAK3

>  <Target Organism>  (778) 
Homo sapiens

>  <Target Type>  (778) 
SINGLE PROTEIN

>  <Document>  (778) 
CHEMBL1201862

>  <Source>  (778) 
PubChem BioAssays

>  <Max Phase>  (778) 
0

>  <#Ro5 Violations>  (778) 
0

>  <Molecular Weight>  (778) 
273.34

>  <Ligand Efficiency BEI>  (778) 
nan

>  <Ligand Efficiency LE>  (778) 
nan

>  <Ligand Efficiency LLE>  (778) 
nan

>  <Ligand Efficiency SEI>  (778) 
nan

>  <ALogP>  (778) 
2.27

>  <Assay Organism>  (778) 
nan

>  <Assay Tissue ChEMBL ID>  (778) 
nan

>  <Assay Tissue Name>  (778) 
nan

>  <Assay Cell Type>  (778) 
nan

>  <Assay Subcellular Fraction>  (778) 
nan

>  <Organism Tax ID>  (778) 
9606

>  <BAO Format ID>  (778) 
BAO_0000019

>  <Published Type>  (778) 
nan

>  <Published Relation>  (778) 
nan

>  <Published Value>  (778) 
nan

>  <Published Units>  (778) 
nan

>  <Canonical Smiles>  (778) 
CC(NC1=C(Nc2ccncc2)C(=O)C1=O)C(C)(C)C

>  <Data Validity Comment>  (778) 
nan

>  <Document Journal>  (778) 
nan

>  <Document Year>  (778) 
nan

>  <SRC ID>  (778) 
7

>  <UO Units>  (778) 
UO_0000065

>  <Potential Duplicate>  (778) 
False

>  <Class>  (778) 
0

$$$$

     RDKit          2D

 29 33  0  0  0  0  0  0  0  0999 V2000
   -0.0372   -6.8216    0.0000 C   0  0  0  0  0  0  0  0  0  0  0  0
   -1.0409   -5.7068    0.0000 C   0  0  0  0  0  0  0  0  0  0  0  0
   -2.5081   -6.0187    0.0000 C   0  0  0  0  0  0  0  0  0  0  0  0
   -3.5118   -4.9040    0.0000 C   0  0  0  0  0  0  0  0  0  0  0  0
   -3.0482   -3.4774    0.0000 C   0  0  0  0  0  0  0  0  0  0  0  0
   -1.5810   -3.1655    0.0000 C   0  0  0  0  0  0  0  0  0  0  0  0
   -0.5773   -4.2803    0.0000 C   0  0  0  0  0  0  0  0  0  0  0  0
    0.8899   -3.9684    0.0000 C   0  0  0  0  0  0  0  0  0  0  0  0
    1.5000   -2.5981    0.0000 C   0  0  0  0  0  0  0  0  0  0  0  0
    2.9918   -2.7549    0.0000 N   0  0  0  0  0  0  0  0  0  0  0  0
    3.3037   -4.2221    0.0000 N   0  0  0  0  0  0  0  0  0  0  0  0
    2.0046   -4.9721    0.0000 N   0  0  0  0  0  0  0  0  0  0  0  0
    1.8478   -6.4639    0.0000 C   0  0  0  0  0  0  0  0  0  0  0  0
    3.0613   -7.3456    0.0000 C   0  0  0  0  0  0  0  0  0  0  0  0
    2.9046   -8.8373    0.0000 C   0  0  0  0  0  0  0  0  0  0  0  0
    4.1181   -9.7190    0.0000 C   0  0  0  0  0  0  0  0  0  0  0  0
    5.4884   -9.1089    0.0000 C   0  0  0  0  0  0  0  0  0  0  0  0
    5.6452   -7.6171    0.0000 C   0  0  0  0  0  0  0  0  0  0  0  0
    4.4317   -6.7354    0.0000 C   0  0  0  0  0  0  0  0  0  0  0  0
    0.7500   -1.2990    0.0000 C   0  0  0  0  0  0  0  0  0  0  0  0
    1.5000    0.0000    0.0000 C   0  0  0  0  0  0  0  0  0  0  0  0
    0.7500    1.2990    0.0000 C   0  0  0  0  0  0  0  0  0  0  0  0
   -0.7500    1.2990    0.0000 C   0  0  0  0  0  0  0  0  0  0  0  0
   -1.7537    2.4138    0.0000 N   0  0  0  0  0  0  0  0  0  0  0  0
   -3.1240    1.8037    0.0000 N   0  0  0  0  0  0  0  0  0  0  0  0
   -2.9672    0.3119    0.0000 C   0  0  0  0  0  0  0  0  0  0  0  0
   -4.0819   -0.6918    0.0000 N   0  0  0  0  0  0  0  0  0  0  0  0
   -1.5000    0.0000    0.0000 C   0  0  0  0  0  0  0  0  0  0  0  0
   -0.7500   -1.2990    0.0000 C   0  0  0  0  0  0  0  0  0  0  0  0
  1  2  1  0
  2  3  2  0
  3  4  1  0
  4  5  2  0
  5  6  1  0
  6  7  2  0
  7  8  1  0
  8  9  2  0
  9 10  1  0
 10 11  2  0
 11 12  1  0
 12 13  1  0
 13 14  1  0
 14 15  2  0
 15 16  1  0
 16 17  2  0
 17 18  1  0
 18 19  2  0
  9 20  1  0
 20 21  2  0
 21 22  1  0
 22 23  2  0
 23 24  1  0
 24 25  1  0
 25 26  2  0
 26 27  1  0
 26 28  1  0
 28 29  2  0
  7  2  1  0
 12  8  1  0
 19 14  1  0
 29 20  1  0
 28 23  1  0
M  END
>  <Molecule>  (779) 
CHEMBL2000029

>  <Standard Type>  (779) 
Ki

>  <Standard Relation>  (779) 
=

>  <Standard Value>  (779) 
125.89

>  <Standard Units>  (779) 
nM

>  <pChEMBL Value>  (779) 
6.9

>  <Comment>  (779) 
active

>  <Compound Key>  (779) 
SID103904485

>  <Assay>  (779) 
CHEMBL1963742

>  <Assay Description>  (779) 
PUBCHEM_BIOASSAY: Navigating the Kinome. (Class of assay: other) Panel member name: JAK3

>  <BAO Format>  (779) 
assay format

>  <Target>  (779) 
CHEMBL2148

>  <Target Pref. Name>  (779) 
Tyrosine-protein kinase JAK3

>  <Target Organism>  (779) 
Homo sapiens

>  <Target Type>  (779) 
SINGLE PROTEIN

>  <Document>  (779) 
CHEMBL1201862

>  <Source>  (779) 
PubChem BioAssays

>  <Max Phase>  (779) 
0

>  <#Ro5 Violations>  (779) 
0

>  <Molecular Weight>  (779) 
380.46

>  <Ligand Efficiency BEI>  (779) 
nan

>  <Ligand Efficiency LE>  (779) 
nan

>  <Ligand Efficiency LLE>  (779) 
nan

>  <Ligand Efficiency SEI>  (779) 
nan

>  <ALogP>  (779) 
4.43

>  <Assay Organism>  (779) 
nan

>  <Assay Tissue ChEMBL ID>  (779) 
nan

>  <Assay Tissue Name>  (779) 
nan

>  <Assay Cell Type>  (779) 
nan

>  <Assay Subcellular Fraction>  (779) 
nan

>  <Organism Tax ID>  (779) 
9606

>  <BAO Format ID>  (779) 
BAO_0000019

>  <Published Type>  (779) 
nan

>  <Published Relation>  (779) 
nan

>  <Published Value>  (779) 
nan

>  <Published Units>  (779) 
nan

>  <Canonical Smiles>  (779) 
Cc1ccccc1c2c(nnn2Cc3ccccc3)c4ccc5[nH]nc(N)c5c4

>  <Data Validity Comment>  (779) 
nan

>  <Document Journal>  (779) 
nan

>  <Document Year>  (779) 
nan

>  <SRC ID>  (779) 
7

>  <UO Units>  (779) 
UO_0000065

>  <Potential Duplicate>  (779) 
False

>  <Class>  (779) 
1

$$$$

     RDKit          2D

 23 25  0  0  0  0  0  0  0  0999 V2000
    1.8478   -6.4639    0.0000 C   0  0  0  0  0  0  0  0  0  0  0  0
    2.0046   -4.9721    0.0000 C   0  0  0  0  0  0  0  0  0  0  0  0
    3.3037   -4.2221    0.0000 C   0  0  0  0  0  0  0  0  0  0  0  0
    2.9918   -2.7549    0.0000 C   0  0  0  0  0  0  0  0  0  0  0  0
    1.5000   -2.5981    0.0000 C   0  0  0  0  0  0  0  0  0  0  0  0
    0.8899   -3.9684    0.0000 S   0  0  0  0  0  0  0  0  0  0  0  0
    0.7500   -1.2990    0.0000 C   0  0  0  0  0  0  0  0  0  0  0  0
    1.5000    0.0000    0.0000 C   0  0  0  0  0  0  0  0  0  0  0  0
    3.0000    0.0000    0.0000 C   0  0  0  0  0  0  0  0  0  0  0  0
    4.5000    0.0000    0.0000 N   0  0  0  0  0  0  0  0  0  0  0  0
    0.7500    1.2990    0.0000 C   0  0  0  0  0  0  0  0  0  0  0  0
    1.5000    2.5981    0.0000 O   0  0  0  0  0  0  0  0  0  0  0  0
   -0.7500    1.2990    0.0000 N   0  0  0  0  0  0  0  0  0  0  0  0
   -1.5000    0.0000    0.0000 C   0  0  0  0  0  0  0  0  0  0  0  0
   -0.7500   -1.2990    0.0000 C   0  0  0  0  0  0  0  0  0  0  0  0
   -3.0000    0.0000    0.0000 C   0  0  0  0  0  0  0  0  0  0  0  0
   -3.7500    1.2990    0.0000 C   0  0  0  0  0  0  0  0  0  0  0  0
   -5.2500    1.2990    0.0000 C   0  0  0  0  0  0  0  0  0  0  0  0
   -6.0000    2.5981    0.0000 Br  0  0  0  0  0  0  0  0  0  0  0  0
   -6.0000    0.0000    0.0000 C   0  0  0  0  0  0  0  0  0  0  0  0
   -5.2500   -1.2990    0.0000 C   0  0  0  0  0  0  0  0  0  0  0  0
   -3.7500   -1.2990    0.0000 C   0  0  0  0  0  0  0  0  0  0  0  0
   -3.0000   -2.5981    0.0000 O   0  0  0  0  0  0  0  0  0  0  0  0
  1  2  1  0
  2  3  2  0
  3  4  1  0
  4  5  2  0
  5  6  1  0
  5  7  1  0
  7  8  2  0
  8  9  1  0
  9 10  3  0
  8 11  1  0
 11 12  2  0
 11 13  1  0
 13 14  1  0
 14 15  2  0
 14 16  1  0
 16 17  2  0
 17 18  1  0
 18 19  1  0
 18 20  2  0
 20 21  1  0
 21 22  2  0
 22 23  1  0
  6  2  1  0
 15  7  1  0
 22 16  1  0
M  END
>  <Molecule>  (780) 
CHEMBL1997193

>  <Standard Type>  (780) 
Ki

>  <Standard Relation>  (780) 
>

>  <Standard Value>  (780) 
5011.87

>  <Standard Units>  (780) 
nM

>  <pChEMBL Value>  (780) 
nan

>  <Comment>  (780) 
inactive

>  <Compound Key>  (780) 
SID103905226

>  <Assay>  (780) 
CHEMBL1963742

>  <Assay Description>  (780) 
PUBCHEM_BIOASSAY: Navigating the Kinome. (Class of assay: other) Panel member name: JAK3

>  <BAO Format>  (780) 
assay format

>  <Target>  (780) 
CHEMBL2148

>  <Target Pref. Name>  (780) 
Tyrosine-protein kinase JAK3

>  <Target Organism>  (780) 
Homo sapiens

>  <Target Type>  (780) 
SINGLE PROTEIN

>  <Document>  (780) 
CHEMBL1201862

>  <Source>  (780) 
PubChem BioAssays

>  <Max Phase>  (780) 
0

>  <#Ro5 Violations>  (780) 
0

>  <Molecular Weight>  (780) 
387.26

>  <Ligand Efficiency BEI>  (780) 
nan

>  <Ligand Efficiency LE>  (780) 
nan

>  <Ligand Efficiency LLE>  (780) 
nan

>  <Ligand Efficiency SEI>  (780) 
nan

>  <ALogP>  (780) 
4.42

>  <Assay Organism>  (780) 
nan

>  <Assay Tissue ChEMBL ID>  (780) 
nan

>  <Assay Tissue Name>  (780) 
nan

>  <Assay Cell Type>  (780) 
nan

>  <Assay Subcellular Fraction>  (780) 
nan

>  <Organism Tax ID>  (780) 
9606

>  <BAO Format ID>  (780) 
BAO_0000019

>  <Published Type>  (780) 
nan

>  <Published Relation>  (780) 
nan

>  <Published Value>  (780) 
nan

>  <Published Units>  (780) 
nan

>  <Canonical Smiles>  (780) 
Cc1ccc(s1)C2=C(C#N)C(=O)NC(=C2)c3cc(Br)ccc3O

>  <Data Validity Comment>  (780) 
nan

>  <Document Journal>  (780) 
nan

>  <Document Year>  (780) 
nan

>  <SRC ID>  (780) 
7

>  <UO Units>  (780) 
UO_0000065

>  <Potential Duplicate>  (780) 
False

>  <Class>  (780) 
0

$$$$

     RDKit          2D

 37 41  0  0  0  0  0  0  0  0999 V2000
  -15.4772    1.5201    0.0000 C   0  0  0  0  0  0  0  0  0  0  0  0
  -14.0507    1.9836    0.0000 C   0  0  0  0  0  0  0  0  0  0  0  0
  -13.7388    3.4509    0.0000 C   0  0  0  0  0  0  0  0  0  0  0  0
  -12.3122    3.9144    0.0000 C   0  0  0  0  0  0  0  0  0  0  0  0
  -11.1975    2.9107    0.0000 C   0  0  0  0  0  0  0  0  0  0  0  0
   -9.7709    3.3742    0.0000 F   0  0  0  0  0  0  0  0  0  0  0  0
  -11.5094    1.4435    0.0000 C   0  0  0  0  0  0  0  0  0  0  0  0
  -10.3946    0.4398    0.0000 N   0  0  0  0  0  0  0  0  0  0  0  0
   -8.9681    0.9033    0.0000 C   0  0  0  0  0  0  0  0  0  0  0  0
   -8.6562    2.3705    0.0000 O   0  0  0  0  0  0  0  0  0  0  0  0
   -7.8533   -0.1004    0.0000 N   0  0  0  0  0  0  0  0  0  0  0  0
   -6.4268    0.3631    0.0000 C   0  0  0  0  0  0  0  0  0  0  0  0
   -5.3120   -0.6406    0.0000 C   0  0  0  0  0  0  0  0  0  0  0  0
   -3.8855   -0.1771    0.0000 C   0  0  0  0  0  0  0  0  0  0  0  0
   -3.5736    1.2902    0.0000 C   0  0  0  0  0  0  0  0  0  0  0  0
   -4.6883    2.2939    0.0000 C   0  0  0  0  0  0  0  0  0  0  0  0
   -6.1149    1.8303    0.0000 C   0  0  0  0  0  0  0  0  0  0  0  0
   -2.1470    1.7537    0.0000 C   0  0  0  0  0  0  0  0  0  0  0  0
   -1.8351    3.2209    0.0000 C   0  0  0  0  0  0  0  0  0  0  0  0
   -0.4086    3.6844    0.0000 C   0  0  0  0  0  0  0  0  0  0  0  0
    0.7062    2.6807    0.0000 C   0  0  0  0  0  0  0  0  0  0  0  0
    2.1328    3.1443    0.0000 O   0  0  0  0  0  0  0  0  0  0  0  0
    2.4446    4.6115    0.0000 C   0  0  0  0  0  0  0  0  0  0  0  0
    3.8712    5.0750    0.0000 C   0  0  0  0  0  0  0  0  0  0  0  0
    4.1831    6.5422    0.0000 C   0  0  0  0  0  0  0  0  0  0  0  0
    5.6097    7.0058    0.0000 N   0  0  0  0  0  0  0  0  0  0  0  0
    6.0732    8.4324    0.0000 C   0  0  0  0  0  0  0  0  0  0  0  0
    7.5732    8.4324    0.0000 C   0  0  0  0  0  0  0  0  0  0  0  0
    8.0367    7.0058    0.0000 C   0  0  0  0  0  0  0  0  0  0  0  0
    6.8232    6.1241    0.0000 C   0  0  0  0  0  0  0  0  0  0  0  0
    0.3943    1.2135    0.0000 C   0  0  0  0  0  0  0  0  0  0  0  0
    1.2760    0.0000    0.0000 N   0  0  0  0  0  0  0  0  0  0  0  0
    0.3943   -1.2135    0.0000 N   0  0  0  0  0  0  0  0  0  0  0  0
   -1.0323   -0.7500    0.0000 C   0  0  0  0  0  0  0  0  0  0  0  0
   -2.2458   -1.6317    0.0000 N   0  0  0  0  0  0  0  0  0  0  0  0
   -1.0323    0.7500    0.0000 C   0  0  0  0  0  0  0  0  0  0  0  0
  -12.9359    0.9799    0.0000 C   0  0  0  0  0  0  0  0  0  0  0  0
  1  2  1  0
  2  3  2  0
  3  4  1  0
  4  5  2  0
  5  6  1  0
  5  7  1  0
  7  8  1  0
  8  9  1  0
  9 10  2  0
  9 11  1  0
 11 12  1  0
 12 13  2  0
 13 14  1  0
 14 15  2  0
 15 16  1  0
 16 17  2  0
 15 18  1  0
 18 19  2  0
 19 20  1  0
 20 21  2  0
 21 22  1  0
 22 23  1  0
 23 24  1  0
 24 25  1  0
 25 26  1  0
 26 27  1  0
 27 28  2  0
 28 29  1  0
 29 30  2  0
 21 31  1  0
 31 32  1  0
 32 33  1  0
 33 34  2  0
 34 35  1  0
 34 36  1  0
  7 37  2  0
 37  2  1  0
 17 12  1  0
 36 18  1  0
 30 26  1  0
 36 31  2  0
M  END
>  <Molecule>  (781) 
CHEMBL2007266

>  <Standard Type>  (781) 
Ki

>  <Standard Relation>  (781) 
>

>  <Standard Value>  (781) 
5011.87

>  <Standard Units>  (781) 
nM

>  <pChEMBL Value>  (781) 
nan

>  <Comment>  (781) 
inactive

>  <Compound Key>  (781) 
SID103905330

>  <Assay>  (781) 
CHEMBL1963742

>  <Assay Description>  (781) 
PUBCHEM_BIOASSAY: Navigating the Kinome. (Class of assay: other) Panel member name: JAK3

>  <BAO Format>  (781) 
assay format

>  <Target>  (781) 
CHEMBL2148

>  <Target Pref. Name>  (781) 
Tyrosine-protein kinase JAK3

>  <Target Organism>  (781) 
Homo sapiens

>  <Target Type>  (781) 
SINGLE PROTEIN

>  <Document>  (781) 
CHEMBL1201862

>  <Source>  (781) 
PubChem BioAssays

>  <Max Phase>  (781) 
0

>  <#Ro5 Violations>  (781) 
1

>  <Molecular Weight>  (781) 
498.56

>  <Ligand Efficiency BEI>  (781) 
nan

>  <Ligand Efficiency LE>  (781) 
nan

>  <Ligand Efficiency LLE>  (781) 
nan

>  <Ligand Efficiency SEI>  (781) 
nan

>  <ALogP>  (781) 
6.17

>  <Assay Organism>  (781) 
nan

>  <Assay Tissue ChEMBL ID>  (781) 
nan

>  <Assay Tissue Name>  (781) 
nan

>  <Assay Cell Type>  (781) 
nan

>  <Assay Subcellular Fraction>  (781) 
nan

>  <Organism Tax ID>  (781) 
9606

>  <BAO Format ID>  (781) 
BAO_0000019

>  <Published Type>  (781) 
nan

>  <Published Relation>  (781) 
nan

>  <Published Value>  (781) 
nan

>  <Published Units>  (781) 
nan

>  <Canonical Smiles>  (781) 
Cc1ccc(F)c(NC(=O)Nc2ccc(cc2)c3ccc(OCCCn4cccc4)c5[nH]nc(N)c35)c1

>  <Data Validity Comment>  (781) 
nan

>  <Document Journal>  (781) 
nan

>  <Document Year>  (781) 
nan

>  <SRC ID>  (781) 
7

>  <UO Units>  (781) 
UO_0000065

>  <Potential Duplicate>  (781) 
False

>  <Class>  (781) 
0

$$$$

     RDKit          2D

 28 31  0  0  0  0  0  0  0  0999 V2000
  -13.9200   -0.0248    0.0000 C   0  0  0  0  0  0  0  0  0  0  0  0
  -12.8053   -1.0285    0.0000 C   0  0  0  0  0  0  0  0  0  0  0  0
  -11.3787   -0.5649    0.0000 C   0  0  0  0  0  0  0  0  0  0  0  0
  -10.2640   -1.5686    0.0000 C   0  0  0  0  0  0  0  0  0  0  0  0
  -10.5759   -3.0359    0.0000 C   0  0  0  0  0  0  0  0  0  0  0  0
   -9.4612   -4.0396    0.0000 N   0  0  0  0  0  0  0  0  0  0  0  0
   -8.0346   -3.5760    0.0000 C   0  0  0  0  0  0  0  0  0  0  0  0
   -7.7227   -2.1088    0.0000 O   0  0  0  0  0  0  0  0  0  0  0  0
   -6.9199   -4.5797    0.0000 N   0  0  0  0  0  0  0  0  0  0  0  0
   -5.4933   -4.1162    0.0000 C   0  0  0  0  0  0  0  0  0  0  0  0
   -4.3786   -5.1199    0.0000 C   0  0  0  0  0  0  0  0  0  0  0  0
   -2.9520   -4.6564    0.0000 C   0  0  0  0  0  0  0  0  0  0  0  0
   -2.6401   -3.1891    0.0000 C   0  0  0  0  0  0  0  0  0  0  0  0
   -3.7548   -2.1855    0.0000 C   0  0  0  0  0  0  0  0  0  0  0  0
   -5.1814   -2.6490    0.0000 C   0  0  0  0  0  0  0  0  0  0  0  0
   -1.2135   -2.7256    0.0000 C   0  0  0  0  0  0  0  0  0  0  0  0
    0.0000   -3.6073    0.0000 C   0  0  0  0  0  0  0  0  0  0  0  0
    1.2135   -2.7256    0.0000 S   0  0  0  0  0  0  0  0  0  0  0  0
    0.7500   -1.2990    0.0000 C   0  0  0  0  0  0  0  0  0  0  0  0
    1.5000    0.0000    0.0000 N   0  0  0  0  0  0  0  0  0  0  0  0
    0.7500    1.2990    0.0000 C   0  0  0  0  0  0  0  0  0  0  0  0
   -0.7500    1.2990    0.0000 N   0  0  0  0  0  0  0  0  0  0  0  0
   -1.5000    0.0000    0.0000 C   0  0  0  0  0  0  0  0  0  0  0  0
   -3.0000    0.0000    0.0000 N   0  0  0  0  0  0  0  0  0  0  0  0
   -0.7500   -1.2990    0.0000 C   0  0  0  0  0  0  0  0  0  0  0  0
  -12.0025   -3.4994    0.0000 C   0  0  0  0  0  0  0  0  0  0  0  0
  -13.1172   -2.4957    0.0000 C   0  0  0  0  0  0  0  0  0  0  0  0
  -14.5438   -2.9592    0.0000 C   0  0  0  0  0  0  0  0  0  0  0  0
  1  2  1  0
  2  3  2  0
  3  4  1  0
  4  5  2  0
  5  6  1  0
  6  7  1  0
  7  8  2  0
  7  9  1  0
  9 10  1  0
 10 11  2  0
 11 12  1  0
 12 13  2  0
 13 14  1  0
 14 15  2  0
 13 16  1  0
 16 17  2  0
 17 18  1  0
 18 19  1  0
 19 20  2  0
 20 21  1  0
 21 22  2  0
 22 23  1  0
 23 24  1  0
 23 25  2  0
  5 26  1  0
 26 27  2  0
 27 28  1  0
 27  2  1  0
 15 10  1  0
 25 16  1  0
 25 19  1  0
M  END
>  <Molecule>  (782) 
CHEMBL2000335

>  <Standard Type>  (782) 
Ki

>  <Standard Relation>  (782) 
>

>  <Standard Value>  (782) 
1584.89

>  <Standard Units>  (782) 
nM

>  <pChEMBL Value>  (782) 
nan

>  <Comment>  (782) 
inactive

>  <Compound Key>  (782) 
SID103904296

>  <Assay>  (782) 
CHEMBL1963742

>  <Assay Description>  (782) 
PUBCHEM_BIOASSAY: Navigating the Kinome. (Class of assay: other) Panel member name: JAK3

>  <BAO Format>  (782) 
assay format

>  <Target>  (782) 
CHEMBL2148

>  <Target Pref. Name>  (782) 
Tyrosine-protein kinase JAK3

>  <Target Organism>  (782) 
Homo sapiens

>  <Target Type>  (782) 
SINGLE PROTEIN

>  <Document>  (782) 
CHEMBL1201862

>  <Source>  (782) 
PubChem BioAssays

>  <Max Phase>  (782) 
0

>  <#Ro5 Violations>  (782) 
1

>  <Molecular Weight>  (782) 
389.48

>  <Ligand Efficiency BEI>  (782) 
nan

>  <Ligand Efficiency LE>  (782) 
nan

>  <Ligand Efficiency LLE>  (782) 
nan

>  <Ligand Efficiency SEI>  (782) 
nan

>  <ALogP>  (782) 
5.2

>  <Assay Organism>  (782) 
nan

>  <Assay Tissue ChEMBL ID>  (782) 
nan

>  <Assay Tissue Name>  (782) 
nan

>  <Assay Cell Type>  (782) 
nan

>  <Assay Subcellular Fraction>  (782) 
nan

>  <Organism Tax ID>  (782) 
9606

>  <BAO Format ID>  (782) 
BAO_0000019

>  <Published Type>  (782) 
nan

>  <Published Relation>  (782) 
nan

>  <Published Value>  (782) 
nan

>  <Published Units>  (782) 
nan

>  <Canonical Smiles>  (782) 
Cc1ccc(NC(=O)Nc2ccc(cc2)c3csc4ncnc(N)c34)cc1C

>  <Data Validity Comment>  (782) 
nan

>  <Document Journal>  (782) 
nan

>  <Document Year>  (782) 
nan

>  <SRC ID>  (782) 
7

>  <UO Units>  (782) 
UO_0000065

>  <Potential Duplicate>  (782) 
False

>  <Class>  (782) 
0

$$$$

     RDKit          2D

 31 36  0  0  0  0  0  0  0  0999 V2000
   -4.3786   -5.1199    0.0000 N   0  0  0  0  0  0  0  0  0  0  0  0
   -2.9520   -4.6564    0.0000 C   0  0  0  0  0  0  0  0  0  0  0  0
   -2.6401   -3.1891    0.0000 C   0  0  0  0  0  0  0  0  0  0  0  0
   -1.2135   -2.7256    0.0000 N   0  0  0  0  0  0  0  0  0  0  0  0
   -0.0000   -3.6073    0.0000 C   0  0  0  0  0  0  0  0  0  0  0  0
    1.2135   -2.7256    0.0000 C   0  0  0  0  0  0  0  0  0  0  0  0
    2.6401   -3.1891    0.0000 C   0  0  0  0  0  0  0  0  0  0  0  0
    3.7548   -2.1855    0.0000 C   0  0  0  0  0  0  0  0  0  0  0  0
    5.1814   -2.6490    0.0000 C   0  0  0  0  0  0  0  0  0  0  0  0
    6.2961   -1.6453    0.0000 C   0  0  0  0  0  0  0  0  0  0  0  0
    7.7634   -1.9571    0.0000 C   0  0  0  0  0  0  0  0  0  0  0  0
    8.5134   -0.6581    0.0000 C   0  0  0  0  0  0  0  0  0  0  0  0
    9.9806   -0.3462    0.0000 C   0  0  0  0  0  0  0  0  0  0  0  0
   10.4441    1.0803    0.0000 C   0  0  0  0  0  0  0  0  0  0  0  0
    9.4404    2.1951    0.0000 C   0  0  0  0  0  0  0  0  0  0  0  0
    7.9732    1.8832    0.0000 C   0  0  0  0  0  0  0  0  0  0  0  0
    7.5097    0.4566    0.0000 C   0  0  0  0  0  0  0  0  0  0  0  0
    6.1393   -0.1535    0.0000 S   0  0  0  0  0  0  0  0  0  0  0  0
    5.4933   -4.1162    0.0000 C   0  0  0  0  0  0  0  0  0  0  0  0
    6.7923   -4.8662    0.0000 N   0  0  0  0  0  0  0  0  0  0  0  0
    6.4805   -6.3334    0.0000 N   0  0  0  0  0  0  0  0  0  0  0  0
    4.9887   -6.4902    0.0000 C   0  0  0  0  0  0  0  0  0  0  0  0
    4.3786   -5.1199    0.0000 C   0  0  0  0  0  0  0  0  0  0  0  0
    2.9520   -4.6564    0.0000 C   0  0  0  0  0  0  0  0  0  0  0  0
    0.7500   -1.2990    0.0000 C   0  0  0  0  0  0  0  0  0  0  0  0
    1.5000    0.0000    0.0000 N   0  0  0  0  0  0  0  0  0  0  0  0
    0.7500    1.2990    0.0000 C   0  0  0  0  0  0  0  0  0  0  0  0
    1.5000    2.5981    0.0000 N   0  0  0  0  0  0  0  0  0  0  0  0
   -0.7500    1.2990    0.0000 N   0  0  0  0  0  0  0  0  0  0  0  0
   -1.5000    0.0000    0.0000 C   0  0  0  0  0  0  0  0  0  0  0  0
   -0.7500   -1.2990    0.0000 C   0  0  0  0  0  0  0  0  0  0  0  0
  1  2  1  0
  2  3  1  0
  3  4  1  0
  4  5  1  0
  5  6  2  0
  6  7  1  0
  7  8  2  0
  8  9  1  0
  9 10  1  0
 10 11  2  0
 11 12  1  0
 12 13  2  0
 13 14  1  0
 14 15  2  0
 15 16  1  0
 16 17  2  0
 17 18  1  0
  9 19  2  0
 19 20  1  0
 20 21  1  0
 21 22  2  0
 22 23  1  0
 23 24  2  0
  6 25  1  0
 25 26  2  0
 26 27  1  0
 27 28  1  0
 27 29  2  0
 29 30  1  0
 30 31  2  0
 31  4  1  0
 24  7  1  0
 18 10  1  0
 17 12  1  0
 23 19  1  0
 31 25  1  0
M  END
>  <Molecule>  (783) 
CHEMBL590109

>  <Standard Type>  (783) 
Ki

>  <Standard Relation>  (783) 
=

>  <Standard Value>  (783) 
1000.0

>  <Standard Units>  (783) 
nM

>  <pChEMBL Value>  (783) 
6.0

>  <Comment>  (783) 
active

>  <Compound Key>  (783) 
SID103904961

>  <Assay>  (783) 
CHEMBL1963742

>  <Assay Description>  (783) 
PUBCHEM_BIOASSAY: Navigating the Kinome. (Class of assay: other) Panel member name: JAK3

>  <BAO Format>  (783) 
assay format

>  <Target>  (783) 
CHEMBL2148

>  <Target Pref. Name>  (783) 
Tyrosine-protein kinase JAK3

>  <Target Organism>  (783) 
Homo sapiens

>  <Target Type>  (783) 
SINGLE PROTEIN

>  <Document>  (783) 
CHEMBL1201862

>  <Source>  (783) 
PubChem BioAssays

>  <Max Phase>  (783) 
0

>  <#Ro5 Violations>  (783) 
0

>  <Molecular Weight>  (783) 
425.52

>  <Ligand Efficiency BEI>  (783) 
nan

>  <Ligand Efficiency LE>  (783) 
nan

>  <Ligand Efficiency LLE>  (783) 
nan

>  <Ligand Efficiency SEI>  (783) 
nan

>  <ALogP>  (783) 
4.4

>  <Assay Organism>  (783) 
nan

>  <Assay Tissue ChEMBL ID>  (783) 
nan

>  <Assay Tissue Name>  (783) 
nan

>  <Assay Cell Type>  (783) 
nan

>  <Assay Subcellular Fraction>  (783) 
nan

>  <Organism Tax ID>  (783) 
9606

>  <BAO Format ID>  (783) 
BAO_0000019

>  <Published Type>  (783) 
nan

>  <Published Relation>  (783) 
nan

>  <Published Value>  (783) 
nan

>  <Published Units>  (783) 
nan

>  <Canonical Smiles>  (783) 
NCCn1cc(c2cc(c3cc4ccccc4s3)c5[nH]ncc5c2)c6nc(N)ncc16

>  <Data Validity Comment>  (783) 
nan

>  <Document Journal>  (783) 
nan

>  <Document Year>  (783) 
nan

>  <SRC ID>  (783) 
7

>  <UO Units>  (783) 
UO_0000065

>  <Potential Duplicate>  (783) 
False

>  <Class>  (783) 
1

$$$$

     RDKit          2D

 24 26  0  0  0  0  0  0  0  0999 V2000
    4.5000    0.0000    0.0000 F   0  0  0  0  0  0  0  0  0  0  0  0
    3.0000    0.0000    0.0000 C   0  0  0  0  0  0  0  0  0  0  0  0
    3.0000   -1.5000    0.0000 F   0  0  0  0  0  0  0  0  0  0  0  0
    3.0000    1.5000    0.0000 F   0  0  0  0  0  0  0  0  0  0  0  0
    1.5000    0.0000    0.0000 C   0  0  0  0  0  0  0  0  0  0  0  0
    0.7500   -1.2990    0.0000 C   0  0  0  0  0  0  0  0  0  0  0  0
   -0.7500   -1.2990    0.0000 C   0  0  0  0  0  0  0  0  0  0  0  0
   -1.5000    0.0000    0.0000 C   0  0  0  0  0  0  0  0  0  0  0  0
   -0.7500    1.2990    0.0000 C   0  0  0  0  0  0  0  0  0  0  0  0
   -1.5000    2.5981    0.0000 C   0  0  0  0  0  0  0  0  0  0  0  0
   -3.0000    2.5981    0.0000 N   0  0  0  0  0  0  0  0  0  0  0  0
   -3.7500    3.8971    0.0000 C   0  0  0  0  0  0  0  0  0  0  0  0
   -3.0000    5.1962    0.0000 O   0  0  0  0  0  0  0  0  0  0  0  0
   -5.2500    3.8971    0.0000 N   0  0  0  0  0  0  0  0  0  0  0  0
   -6.0000    5.1962    0.0000 C   0  0  0  0  0  0  0  0  0  0  0  0
   -5.2500    6.4952    0.0000 C   0  0  0  0  0  0  0  0  0  0  0  0
   -6.0000    7.7942    0.0000 N   0  0  0  0  0  0  0  0  0  0  0  0
   -7.5000    7.7942    0.0000 C   0  0  0  0  0  0  0  0  0  0  0  0
   -8.2500    6.4952    0.0000 C   0  0  0  0  0  0  0  0  0  0  0  0
   -7.5000    5.1962    0.0000 N   0  0  0  0  0  0  0  0  0  0  0  0
   -0.7500    3.8971    0.0000 C   0  0  0  0  0  0  0  0  0  0  0  0
    0.7500    3.8971    0.0000 C   0  0  0  0  0  0  0  0  0  0  0  0
    1.5000    2.5981    0.0000 N   0  0  0  0  0  0  0  0  0  0  0  0
    0.7500    1.2990    0.0000 C   0  0  0  0  0  0  0  0  0  0  0  0
  1  2  1  0
  2  3  1  0
  2  4  1  0
  2  5  1  0
  5  6  2  0
  6  7  1  0
  7  8  2  0
  8  9  1  0
  9 10  2  0
 10 11  1  0
 11 12  1  0
 12 13  2  0
 12 14  1  0
 14 15  1  0
 15 16  2  0
 16 17  1  0
 17 18  2  0
 18 19  1  0
 19 20  2  0
 10 21  1  0
 21 22  2  0
 22 23  1  0
 23 24  2  0
 24  5  1  0
 24  9  1  0
 20 15  1  0
M  END
>  <Molecule>  (784) 
CHEMBL1994538

>  <Standard Type>  (784) 
Ki

>  <Standard Relation>  (784) 
>

>  <Standard Value>  (784) 
1584.89

>  <Standard Units>  (784) 
nM

>  <pChEMBL Value>  (784) 
nan

>  <Comment>  (784) 
inactive

>  <Compound Key>  (784) 
SID103904888

>  <Assay>  (784) 
CHEMBL1963742

>  <Assay Description>  (784) 
PUBCHEM_BIOASSAY: Navigating the Kinome. (Class of assay: other) Panel member name: JAK3

>  <BAO Format>  (784) 
assay format

>  <Target>  (784) 
CHEMBL2148

>  <Target Pref. Name>  (784) 
Tyrosine-protein kinase JAK3

>  <Target Organism>  (784) 
Homo sapiens

>  <Target Type>  (784) 
SINGLE PROTEIN

>  <Document>  (784) 
CHEMBL1201862

>  <Source>  (784) 
PubChem BioAssays

>  <Max Phase>  (784) 
0

>  <#Ro5 Violations>  (784) 
0

>  <Molecular Weight>  (784) 
333.27

>  <Ligand Efficiency BEI>  (784) 
nan

>  <Ligand Efficiency LE>  (784) 
nan

>  <Ligand Efficiency LLE>  (784) 
nan

>  <Ligand Efficiency SEI>  (784) 
nan

>  <ALogP>  (784) 
3.69

>  <Assay Organism>  (784) 
nan

>  <Assay Tissue ChEMBL ID>  (784) 
nan

>  <Assay Tissue Name>  (784) 
nan

>  <Assay Cell Type>  (784) 
nan

>  <Assay Subcellular Fraction>  (784) 
nan

>  <Organism Tax ID>  (784) 
9606

>  <BAO Format ID>  (784) 
BAO_0000019

>  <Published Type>  (784) 
nan

>  <Published Relation>  (784) 
nan

>  <Published Value>  (784) 
nan

>  <Published Units>  (784) 
nan

>  <Canonical Smiles>  (784) 
FC(F)(F)c1cccc2c(NC(=O)Nc3cnccn3)ccnc12

>  <Data Validity Comment>  (784) 
nan

>  <Document Journal>  (784) 
nan

>  <Document Year>  (784) 
nan

>  <SRC ID>  (784) 
7

>  <UO Units>  (784) 
UO_0000065

>  <Potential Duplicate>  (784) 
False

>  <Class>  (784) 
0

$$$$

     RDKit          2D

 25 27  0  0  0  0  0  0  0  0999 V2000
    9.0000    0.0000    0.0000 F   0  0  0  0  0  0  0  0  0  0  0  0
    8.2500   -1.2990    0.0000 C   0  0  0  0  0  0  0  0  0  0  0  0
    9.5490   -2.0490    0.0000 F   0  0  0  0  0  0  0  0  0  0  0  0
    6.9510   -0.5490    0.0000 F   0  0  0  0  0  0  0  0  0  0  0  0
    7.5000   -2.5981    0.0000 C   0  0  0  0  0  0  0  0  0  0  0  0
    8.2500   -3.8971    0.0000 C   0  0  0  0  0  0  0  0  0  0  0  0
    7.5000   -5.1962    0.0000 C   0  0  0  0  0  0  0  0  0  0  0  0
    6.0000   -5.1962    0.0000 C   0  0  0  0  0  0  0  0  0  0  0  0
    5.2500   -3.8971    0.0000 C   0  0  0  0  0  0  0  0  0  0  0  0
    3.7500   -3.8971    0.0000 N   0  0  0  0  0  0  0  0  0  0  0  0
    3.0000   -2.5981    0.0000 C   0  0  0  0  0  0  0  0  0  0  0  0
    3.7500   -1.2990    0.0000 O   0  0  0  0  0  0  0  0  0  0  0  0
    1.5000   -2.5981    0.0000 N   0  0  0  0  0  0  0  0  0  0  0  0
    0.7500   -1.2990    0.0000 C   0  0  0  0  0  0  0  0  0  0  0  0
    1.5000    0.0000    0.0000 C   0  0  0  0  0  0  0  0  0  0  0  0
    0.7500    1.2990    0.0000 C   0  0  0  0  0  0  0  0  0  0  0  0
   -0.7500    1.2990    0.0000 N   0  0  0  0  0  0  0  0  0  0  0  0
   -1.5000    0.0000    0.0000 C   0  0  0  0  0  0  0  0  0  0  0  0
   -3.0000    0.0000    0.0000 C   0  0  0  0  0  0  0  0  0  0  0  0
   -3.7500    1.2990    0.0000 Cl  0  0  0  0  0  0  0  0  0  0  0  0
   -3.7500   -1.2990    0.0000 C   0  0  0  0  0  0  0  0  0  0  0  0
   -3.0000   -2.5981    0.0000 C   0  0  0  0  0  0  0  0  0  0  0  0
   -1.5000   -2.5981    0.0000 C   0  0  0  0  0  0  0  0  0  0  0  0
   -0.7500   -1.2990    0.0000 C   0  0  0  0  0  0  0  0  0  0  0  0
    6.0000   -2.5981    0.0000 N   0  0  0  0  0  0  0  0  0  0  0  0
  1  2  1  0
  2  3  1  0
  2  4  1  0
  2  5  1  0
  5  6  2  0
  6  7  1  0
  7  8  2  0
  8  9  1  0
  9 10  1  0
 10 11  1  0
 11 12  2  0
 11 13  1  0
 13 14  1  0
 14 15  2  0
 15 16  1  0
 16 17  2  0
 17 18  1  0
 18 19  2  0
 19 20  1  0
 19 21  1  0
 21 22  2  0
 22 23  1  0
 23 24  2  0
  9 25  2  0
 25  5  1  0
 24 14  1  0
 24 18  1  0
M  END
>  <Molecule>  (785) 
CHEMBL1980540

>  <Standard Type>  (785) 
Ki

>  <Standard Relation>  (785) 
>

>  <Standard Value>  (785) 
1584.89

>  <Standard Units>  (785) 
nM

>  <pChEMBL Value>  (785) 
nan

>  <Comment>  (785) 
inactive

>  <Compound Key>  (785) 
SID103904899

>  <Assay>  (785) 
CHEMBL1963742

>  <Assay Description>  (785) 
PUBCHEM_BIOASSAY: Navigating the Kinome. (Class of assay: other) Panel member name: JAK3

>  <BAO Format>  (785) 
assay format

>  <Target>  (785) 
CHEMBL2148

>  <Target Pref. Name>  (785) 
Tyrosine-protein kinase JAK3

>  <Target Organism>  (785) 
Homo sapiens

>  <Target Type>  (785) 
SINGLE PROTEIN

>  <Document>  (785) 
CHEMBL1201862

>  <Source>  (785) 
PubChem BioAssays

>  <Max Phase>  (785) 
0

>  <#Ro5 Violations>  (785) 
0

>  <Molecular Weight>  (785) 
366.73

>  <Ligand Efficiency BEI>  (785) 
nan

>  <Ligand Efficiency LE>  (785) 
nan

>  <Ligand Efficiency LLE>  (785) 
nan

>  <Ligand Efficiency SEI>  (785) 
nan

>  <ALogP>  (785) 
4.95

>  <Assay Organism>  (785) 
nan

>  <Assay Tissue ChEMBL ID>  (785) 
nan

>  <Assay Tissue Name>  (785) 
nan

>  <Assay Cell Type>  (785) 
nan

>  <Assay Subcellular Fraction>  (785) 
nan

>  <Organism Tax ID>  (785) 
9606

>  <BAO Format ID>  (785) 
BAO_0000019

>  <Published Type>  (785) 
nan

>  <Published Relation>  (785) 
nan

>  <Published Value>  (785) 
nan

>  <Published Units>  (785) 
nan

>  <Canonical Smiles>  (785) 
FC(F)(F)c1cccc(NC(=O)Nc2ccnc3c(Cl)cccc23)n1

>  <Data Validity Comment>  (785) 
nan

>  <Document Journal>  (785) 
nan

>  <Document Year>  (785) 
nan

>  <SRC ID>  (785) 
7

>  <UO Units>  (785) 
UO_0000065

>  <Potential Duplicate>  (785) 
False

>  <Class>  (785) 
0

$$$$

     RDKit          2D

 21 23  0  0  0  0  0  0  0  0999 V2000
  -11.5094    1.4435    0.0000 C   0  0  0  0  0  0  0  0  0  0  0  0
  -10.3946    0.4398    0.0000 C   0  0  0  0  0  0  0  0  0  0  0  0
  -10.7065   -1.0275    0.0000 N   0  0  0  0  0  0  0  0  0  0  0  0
   -8.9681    0.9033    0.0000 C   0  0  0  0  0  0  0  0  0  0  0  0
   -8.6562    2.3705    0.0000 C   0  0  0  0  0  0  0  0  0  0  0  0
   -7.2296    2.8340    0.0000 C   0  0  0  0  0  0  0  0  0  0  0  0
   -6.1149    1.8303    0.0000 C   0  0  0  0  0  0  0  0  0  0  0  0
   -6.4268    0.3631    0.0000 C   0  0  0  0  0  0  0  0  0  0  0  0
   -7.8533   -0.1004    0.0000 C   0  0  0  0  0  0  0  0  0  0  0  0
   -4.6883    2.2939    0.0000 C   0  0  0  0  0  0  0  0  0  0  0  0
   -4.3764    3.7611    0.0000 O   0  0  0  0  0  0  0  0  0  0  0  0
   -3.5736    1.2902    0.0000 N   0  0  0  0  0  0  0  0  0  0  0  0
   -2.1470    1.7537    0.0000 C   0  0  0  0  0  0  0  0  0  0  0  0
   -1.8351    3.2209    0.0000 C   0  0  0  0  0  0  0  0  0  0  0  0
   -0.4086    3.6844    0.0000 C   0  0  0  0  0  0  0  0  0  0  0  0
    0.7062    2.6807    0.0000 N   0  0  0  0  0  0  0  0  0  0  0  0
    0.3943    1.2135    0.0000 C   0  0  0  0  0  0  0  0  0  0  0  0
    1.2760    0.0000    0.0000 N   0  0  0  0  0  0  0  0  0  0  0  0
    0.3943   -1.2135    0.0000 C   0  0  0  0  0  0  0  0  0  0  0  0
   -1.0323   -0.7500    0.0000 C   0  0  0  0  0  0  0  0  0  0  0  0
   -1.0323    0.7500    0.0000 C   0  0  0  0  0  0  0  0  0  0  0  0
  1  2  1  0
  2  3  1  0
  2  4  1  0
  4  5  1  0
  5  6  1  0
  6  7  1  0
  7  8  1  0
  8  9  1  0
  7 10  1  0
 10 11  2  0
 10 12  1  0
 12 13  1  0
 13 14  2  0
 14 15  1  0
 15 16  2  0
 16 17  1  0
 17 18  1  0
 18 19  1  0
 19 20  2  0
 20 21  1  0
  9  4  1  0
 21 13  1  0
 21 17  2  0
M  END
>  <Molecule>  (786) 
CHEMBL2002992

>  <Standard Type>  (786) 
Ki

>  <Standard Relation>  (786) 
>

>  <Standard Value>  (786) 
3981.07

>  <Standard Units>  (786) 
nM

>  <pChEMBL Value>  (786) 
nan

>  <Comment>  (786) 
inactive

>  <Compound Key>  (786) 
SID103905614

>  <Assay>  (786) 
CHEMBL1963742

>  <Assay Description>  (786) 
PUBCHEM_BIOASSAY: Navigating the Kinome. (Class of assay: other) Panel member name: JAK3

>  <BAO Format>  (786) 
assay format

>  <Target>  (786) 
CHEMBL2148

>  <Target Pref. Name>  (786) 
Tyrosine-protein kinase JAK3

>  <Target Organism>  (786) 
Homo sapiens

>  <Target Type>  (786) 
SINGLE PROTEIN

>  <Document>  (786) 
CHEMBL1201862

>  <Source>  (786) 
PubChem BioAssays

>  <Max Phase>  (786) 
0

>  <#Ro5 Violations>  (786) 
0

>  <Molecular Weight>  (786) 
286.38

>  <Ligand Efficiency BEI>  (786) 
nan

>  <Ligand Efficiency LE>  (786) 
nan

>  <Ligand Efficiency LLE>  (786) 
nan

>  <Ligand Efficiency SEI>  (786) 
nan

>  <ALogP>  (786) 
2.66

>  <Assay Organism>  (786) 
nan

>  <Assay Tissue ChEMBL ID>  (786) 
nan

>  <Assay Tissue Name>  (786) 
nan

>  <Assay Cell Type>  (786) 
nan

>  <Assay Subcellular Fraction>  (786) 
nan

>  <Organism Tax ID>  (786) 
9606

>  <BAO Format ID>  (786) 
BAO_0000019

>  <Published Type>  (786) 
nan

>  <Published Relation>  (786) 
nan

>  <Published Value>  (786) 
nan

>  <Published Units>  (786) 
nan

>  <Canonical Smiles>  (786) 
CC(N)C1CCC(CC1)C(=O)Nc2ccnc3[nH]ccc23

>  <Data Validity Comment>  (786) 
nan

>  <Document Journal>  (786) 
nan

>  <Document Year>  (786) 
nan

>  <SRC ID>  (786) 
7

>  <UO Units>  (786) 
UO_0000065

>  <Potential Duplicate>  (786) 
False

>  <Class>  (786) 
0

$$$$

     RDKit          2D

 27 31  0  0  0  0  0  0  0  0999 V2000
    0.0000   -9.6073    0.0000 F   0  0  0  0  0  0  0  0  0  0  0  0
    0.0000   -8.1073    0.0000 C   0  0  0  0  0  0  0  0  0  0  0  0
   -1.2990   -7.3573    0.0000 C   0  0  0  0  0  0  0  0  0  0  0  0
   -1.2990   -5.8573    0.0000 C   0  0  0  0  0  0  0  0  0  0  0  0
   -0.0000   -5.1073    0.0000 C   0  0  0  0  0  0  0  0  0  0  0  0
    1.2990   -5.8573    0.0000 C   0  0  0  0  0  0  0  0  0  0  0  0
    1.2990   -7.3573    0.0000 C   0  0  0  0  0  0  0  0  0  0  0  0
   -0.0000   -3.6073    0.0000 C   0  0  0  0  0  0  0  0  0  0  0  0
    1.2135   -2.7256    0.0000 N   0  0  0  0  0  0  0  0  0  0  0  0
    0.7500   -1.2990    0.0000 C   0  0  0  0  0  0  0  0  0  0  0  0
    1.5000    0.0000    0.0000 C   0  0  0  0  0  0  0  0  0  0  0  0
    0.7500    1.2990    0.0000 N   0  0  0  0  0  0  0  0  0  0  0  0
   -0.7500    1.2990    0.0000 C   0  0  0  0  0  0  0  0  0  0  0  0
   -1.5000    0.0000    0.0000 C   0  0  0  0  0  0  0  0  0  0  0  0
   -0.7500   -1.2990    0.0000 N   0  0  0  0  0  0  0  0  0  0  0  0
   -1.2135   -2.7256    0.0000 C   0  0  0  0  0  0  0  0  0  0  0  0
   -2.6401   -3.1891    0.0000 C   0  0  0  0  0  0  0  0  0  0  0  0
   -3.7548   -2.1855    0.0000 C   0  0  0  0  0  0  0  0  0  0  0  0
   -5.1814   -2.6490    0.0000 C   0  0  0  0  0  0  0  0  0  0  0  0
   -5.4933   -4.1162    0.0000 N   0  0  0  0  0  0  0  0  0  0  0  0
   -4.3786   -5.1199    0.0000 C   0  0  0  0  0  0  0  0  0  0  0  0
   -4.6904   -6.5871    0.0000 N   0  0  0  0  0  0  0  0  0  0  0  0
   -6.1170   -7.0506    0.0000 C   0  0  0  0  0  0  0  0  0  0  0  0
   -6.4289   -8.5179    0.0000 C   0  0  0  0  0  0  0  0  0  0  0  0
   -5.9654   -9.9444    0.0000 C   0  0  0  0  0  0  0  0  0  0  0  0
   -7.4326   -9.6326    0.0000 C   0  0  0  0  0  0  0  0  0  0  0  0
   -2.9520   -4.6564    0.0000 N   0  0  0  0  0  0  0  0  0  0  0  0
  1  2  1  0
  2  3  2  0
  3  4  1  0
  4  5  2  0
  5  6  1  0
  6  7  2  0
  5  8  1  0
  8  9  1  0
  9 10  2  0
 10 11  1  0
 11 12  2  0
 12 13  1  0
 13 14  2  0
 14 15  1  0
 15 16  1  0
 16 17  1  0
 17 18  2  0
 18 19  1  0
 19 20  2  0
 20 21  1  0
 21 22  1  0
 22 23  1  0
 23 24  1  0
 24 25  1  0
 25 26  1  0
 21 27  2  0
  7  2  1  0
 16  8  2  0
 15 10  1  0
 27 17  1  0
 26 24  1  0
M  END
>  <Molecule>  (787) 
CHEMBL1990904

>  <Standard Type>  (787) 
Ki

>  <Standard Relation>  (787) 
>

>  <Standard Value>  (787) 
1584.89

>  <Standard Units>  (787) 
nM

>  <pChEMBL Value>  (787) 
nan

>  <Comment>  (787) 
inactive

>  <Compound Key>  (787) 
SID103904763

>  <Assay>  (787) 
CHEMBL1963742

>  <Assay Description>  (787) 
PUBCHEM_BIOASSAY: Navigating the Kinome. (Class of assay: other) Panel member name: JAK3

>  <BAO Format>  (787) 
assay format

>  <Target>  (787) 
CHEMBL2148

>  <Target Pref. Name>  (787) 
Tyrosine-protein kinase JAK3

>  <Target Organism>  (787) 
Homo sapiens

>  <Target Type>  (787) 
SINGLE PROTEIN

>  <Document>  (787) 
CHEMBL1201862

>  <Source>  (787) 
PubChem BioAssays

>  <Max Phase>  (787) 
0

>  <#Ro5 Violations>  (787) 
0

>  <Molecular Weight>  (787) 
360.4

>  <Ligand Efficiency BEI>  (787) 
nan

>  <Ligand Efficiency LE>  (787) 
nan

>  <Ligand Efficiency LLE>  (787) 
nan

>  <Ligand Efficiency SEI>  (787) 
nan

>  <ALogP>  (787) 
3.81

>  <Assay Organism>  (787) 
nan

>  <Assay Tissue ChEMBL ID>  (787) 
nan

>  <Assay Tissue Name>  (787) 
nan

>  <Assay Cell Type>  (787) 
nan

>  <Assay Subcellular Fraction>  (787) 
nan

>  <Organism Tax ID>  (787) 
9606

>  <BAO Format ID>  (787) 
BAO_0000019

>  <Published Type>  (787) 
nan

>  <Published Relation>  (787) 
nan

>  <Published Value>  (787) 
nan

>  <Published Units>  (787) 
nan

>  <Canonical Smiles>  (787) 
Fc1ccc(cc1)c2nc3cnccn3c2c4ccnc(NCC5CC5)n4

>  <Data Validity Comment>  (787) 
nan

>  <Document Journal>  (787) 
nan

>  <Document Year>  (787) 
nan

>  <SRC ID>  (787) 
7

>  <UO Units>  (787) 
UO_0000065

>  <Potential Duplicate>  (787) 
False

>  <Class>  (787) 
0

$$$$

     RDKit          2D

 29 30  0  0  0  0  0  0  0  0999 V2000
    5.2500   -1.2990    0.0000 C   0  0  0  0  0  0  0  0  0  0  0  0
    3.7500   -1.2990    0.0000 C   0  0  0  0  0  0  0  0  0  0  0  0
    3.0000    0.0000    0.0000 O   0  0  0  0  0  0  0  0  0  0  0  0
    1.5000    0.0000    0.0000 C   0  0  0  0  0  0  0  0  0  0  0  0
    0.7500   -1.2990    0.0000 N   0  0  0  0  0  0  0  0  0  0  0  0
   -0.7500   -1.2990    0.0000 C   0  0  0  0  0  0  0  0  0  0  0  0
   -1.5000   -2.5981    0.0000 N   0  0  0  0  0  0  0  0  0  0  0  0
   -3.0000   -2.5981    0.0000 C   0  0  0  0  0  0  0  0  0  0  0  0
   -3.7500   -1.2990    0.0000 O   0  0  0  0  0  0  0  0  0  0  0  0
   -3.7500   -3.8971    0.0000 C   0  0  0  0  0  0  0  0  0  0  0  0
   -5.2500   -3.8971    0.0000 C   0  0  0  0  0  0  0  0  0  0  0  0
   -6.0000   -2.5981    0.0000 C   0  0  0  0  0  0  0  0  0  0  0  0
   -7.5000   -2.5981    0.0000 C   0  0  0  0  0  0  0  0  0  0  0  0
   -8.2500   -1.2990    0.0000 O   0  0  0  0  0  0  0  0  0  0  0  0
   -7.5000    0.0000    0.0000 C   0  0  0  0  0  0  0  0  0  0  0  0
   -8.2500   -3.8971    0.0000 C   0  0  0  0  0  0  0  0  0  0  0  0
   -7.5000   -5.1962    0.0000 C   0  0  0  0  0  0  0  0  0  0  0  0
   -6.0000   -5.1962    0.0000 C   0  0  0  0  0  0  0  0  0  0  0  0
   -5.2500   -6.4952    0.0000 O   0  0  0  0  0  0  0  0  0  0  0  0
   -6.0000   -7.7942    0.0000 C   0  0  0  0  0  0  0  0  0  0  0  0
   -9.7500   -3.8971    0.0000 S   0  0  0  0  0  0  0  0  0  0  0  0
   -9.7500   -2.3971    0.0000 O   0  0  0  0  0  0  0  0  0  0  0  0
   -9.7500   -5.3971    0.0000 O   0  0  0  0  0  0  0  0  0  0  0  0
  -11.2500   -3.8971    0.0000 C   0  0  0  0  0  0  0  0  0  0  0  0
   -1.5000    0.0000    0.0000 C   0  0  0  0  0  0  0  0  0  0  0  0
   -0.7500    1.2990    0.0000 C   0  0  0  0  0  0  0  0  0  0  0  0
   -1.5000    2.5981    0.0000 N   0  0  0  0  0  0  0  0  0  0  0  0
    0.7500    1.2990    0.0000 C   0  0  0  0  0  0  0  0  0  0  0  0
    1.5000    2.5981    0.0000 Cl  0  0  0  0  0  0  0  0  0  0  0  0
  1  2  1  0
  2  3  1  0
  3  4  1  0
  4  5  2  0
  5  6  1  0
  6  7  1  0
  7  8  1  0
  8  9  2  0
  8 10  1  0
 10 11  1  0
 11 12  2  0
 12 13  1  0
 13 14  1  0
 14 15  1  0
 13 16  2  0
 16 17  1  0
 17 18  2  0
 18 19  1  0
 19 20  1  0
 16 21  1  0
 21 22  2  0
 21 23  2  0
 21 24  1  0
  6 25  2  0
 25 26  1  0
 26 27  1  0
 26 28  2  0
 28 29  1  0
 28  4  1  0
 18 11  1  0
M  END
>  <Molecule>  (788) 
CHEMBL210928

>  <Standard Type>  (788) 
Ki

>  <Standard Relation>  (788) 
>

>  <Standard Value>  (788) 
1584.89

>  <Standard Units>  (788) 
nM

>  <pChEMBL Value>  (788) 
nan

>  <Comment>  (788) 
inactive

>  <Compound Key>  (788) 
SID103905197

>  <Assay>  (788) 
CHEMBL1963742

>  <Assay Description>  (788) 
PUBCHEM_BIOASSAY: Navigating the Kinome. (Class of assay: other) Panel member name: JAK3

>  <BAO Format>  (788) 
assay format

>  <Target>  (788) 
CHEMBL2148

>  <Target Pref. Name>  (788) 
Tyrosine-protein kinase JAK3

>  <Target Organism>  (788) 
Homo sapiens

>  <Target Type>  (788) 
SINGLE PROTEIN

>  <Document>  (788) 
CHEMBL1201862

>  <Source>  (788) 
PubChem BioAssays

>  <Max Phase>  (788) 
0

>  <#Ro5 Violations>  (788) 
0

>  <Molecular Weight>  (788) 
443.91

>  <Ligand Efficiency BEI>  (788) 
nan

>  <Ligand Efficiency LE>  (788) 
nan

>  <Ligand Efficiency LLE>  (788) 
nan

>  <Ligand Efficiency SEI>  (788) 
nan

>  <ALogP>  (788) 
2.32

>  <Assay Organism>  (788) 
nan

>  <Assay Tissue ChEMBL ID>  (788) 
nan

>  <Assay Tissue Name>  (788) 
nan

>  <Assay Cell Type>  (788) 
nan

>  <Assay Subcellular Fraction>  (788) 
nan

>  <Organism Tax ID>  (788) 
9606

>  <BAO Format ID>  (788) 
BAO_0000019

>  <Published Type>  (788) 
nan

>  <Published Relation>  (788) 
nan

>  <Published Value>  (788) 
nan

>  <Published Units>  (788) 
nan

>  <Canonical Smiles>  (788) 
CCOc1nc(NC(=O)Cc2cc(OC)c(cc2OC)S(=O)(=O)C)cc(N)c1Cl

>  <Data Validity Comment>  (788) 
nan

>  <Document Journal>  (788) 
nan

>  <Document Year>  (788) 
nan

>  <SRC ID>  (788) 
7

>  <UO Units>  (788) 
UO_0000065

>  <Potential Duplicate>  (788) 
False

>  <Class>  (788) 
0

$$$$

     RDKit          2D

 26 30  0  0  0  0  0  0  0  0999 V2000
    2.6401   -3.1891    0.0000 O   0  0  0  0  0  0  0  0  0  0  0  0
    1.2135   -2.7256    0.0000 C   0  0  0  0  0  0  0  0  0  0  0  0
   -0.0000   -3.6073    0.0000 N   0  0  0  0  0  0  0  0  0  0  0  0
   -1.2135   -2.7256    0.0000 C   0  0  0  0  0  0  0  0  0  0  0  0
   -0.7500   -1.2990    0.0000 C   0  0  0  0  0  0  0  0  0  0  0  0
    0.7500   -1.2990    0.0000 C   0  0  0  0  0  0  0  0  0  0  0  0
    1.5000    0.0000    0.0000 C   0  0  0  0  0  0  0  0  0  0  0  0
    0.7500    1.2990    0.0000 C   0  0  0  0  0  0  0  0  0  0  0  0
   -0.7500    1.2990    0.0000 C   0  0  0  0  0  0  0  0  0  0  0  0
   -1.5000    0.0000    0.0000 C   0  0  0  0  0  0  0  0  0  0  0  0
   -3.0000    0.0000    0.0000 C   0  0  0  0  0  0  0  0  0  0  0  0
   -3.7500    1.2990    0.0000 C   0  0  0  0  0  0  0  0  0  0  0  0
   -5.2500    1.2990    0.0000 C   0  0  0  0  0  0  0  0  0  0  0  0
   -6.0000    0.0000    0.0000 C   0  0  0  0  0  0  0  0  0  0  0  0
   -7.5000    0.0000    0.0000 N   0  0  0  0  0  0  0  0  0  0  0  0
   -8.2500    1.2990    0.0000 C   0  0  0  0  0  0  0  0  0  0  0  0
   -7.6399    2.6694    0.0000 N   0  0  0  0  0  0  0  0  0  0  0  0
   -8.7546    3.6731    0.0000 C   0  0  0  0  0  0  0  0  0  0  0  0
   -8.7546    5.1731    0.0000 C   0  0  0  0  0  0  0  0  0  0  0  0
  -10.0537    5.9231    0.0000 C   0  0  0  0  0  0  0  0  0  0  0  0
  -11.3527    5.1731    0.0000 C   0  0  0  0  0  0  0  0  0  0  0  0
  -11.3527    3.6731    0.0000 C   0  0  0  0  0  0  0  0  0  0  0  0
  -10.0537    2.9231    0.0000 C   0  0  0  0  0  0  0  0  0  0  0  0
   -9.7418    1.4558    0.0000 N   0  0  0  0  0  0  0  0  0  0  0  0
   -5.2500   -1.2990    0.0000 C   0  0  0  0  0  0  0  0  0  0  0  0
   -3.7500   -1.2990    0.0000 C   0  0  0  0  0  0  0  0  0  0  0  0
  1  2  2  0
  2  3  1  0
  3  4  1  0
  4  5  1  0
  5  6  2  0
  6  7  1  0
  7  8  2  0
  8  9  1  0
  9 10  2  0
 10 11  1  0
 11 12  2  0
 12 13  1  0
 13 14  2  0
 14 15  1  0
 15 16  1  0
 16 17  2  0
 17 18  1  0
 18 19  2  0
 19 20  1  0
 20 21  2  0
 21 22  1  0
 22 23  2  0
 23 24  1  0
 14 25  1  0
 25 26  2  0
  6  2  1  0
 10  5  1  0
 26 11  1  0
 24 16  1  0
 23 18  1  0
M  END
>  <Molecule>  (789) 
CHEMBL1979057

>  <Standard Type>  (789) 
Ki

>  <Standard Relation>  (789) 
>

>  <Standard Value>  (789) 
1584.89

>  <Standard Units>  (789) 
nM

>  <pChEMBL Value>  (789) 
nan

>  <Comment>  (789) 
inactive

>  <Compound Key>  (789) 
SID103905248

>  <Assay>  (789) 
CHEMBL1963742

>  <Assay Description>  (789) 
PUBCHEM_BIOASSAY: Navigating the Kinome. (Class of assay: other) Panel member name: JAK3

>  <BAO Format>  (789) 
assay format

>  <Target>  (789) 
CHEMBL2148

>  <Target Pref. Name>  (789) 
Tyrosine-protein kinase JAK3

>  <Target Organism>  (789) 
Homo sapiens

>  <Target Type>  (789) 
SINGLE PROTEIN

>  <Document>  (789) 
CHEMBL1201862

>  <Source>  (789) 
PubChem BioAssays

>  <Max Phase>  (789) 
0

>  <#Ro5 Violations>  (789) 
0

>  <Molecular Weight>  (789) 
340.39

>  <Ligand Efficiency BEI>  (789) 
nan

>  <Ligand Efficiency LE>  (789) 
nan

>  <Ligand Efficiency LLE>  (789) 
nan

>  <Ligand Efficiency SEI>  (789) 
nan

>  <ALogP>  (789) 
4.22

>  <Assay Organism>  (789) 
nan

>  <Assay Tissue ChEMBL ID>  (789) 
nan

>  <Assay Tissue Name>  (789) 
nan

>  <Assay Cell Type>  (789) 
nan

>  <Assay Subcellular Fraction>  (789) 
nan

>  <Organism Tax ID>  (789) 
9606

>  <BAO Format ID>  (789) 
BAO_0000019

>  <Published Type>  (789) 
nan

>  <Published Relation>  (789) 
nan

>  <Published Value>  (789) 
nan

>  <Published Units>  (789) 
nan

>  <Canonical Smiles>  (789) 
O=C1NCc2c1cccc2c3ccc(Nc4nc5ccccc5[nH]4)cc3

>  <Data Validity Comment>  (789) 
nan

>  <Document Journal>  (789) 
nan

>  <Document Year>  (789) 
nan

>  <SRC ID>  (789) 
7

>  <UO Units>  (789) 
UO_0000065

>  <Potential Duplicate>  (789) 
False

>  <Class>  (789) 
0

$$$$

     RDKit          2D

 27 29  0  0  0  0  0  0  0  0999 V2000
   -8.1027   -0.2891    0.0000 C   0  0  0  0  0  0  0  0  0  0  0  0
   -7.0990    0.8256    0.0000 C   0  0  0  0  0  0  0  0  0  0  0  0
   -6.0953    1.9404    0.0000 C   0  0  0  0  0  0  0  0  0  0  0  0
   -5.9843   -0.1781    0.0000 C   0  0  0  0  0  0  0  0  0  0  0  0
   -6.2961   -1.6453    0.0000 N   0  0  0  0  0  0  0  0  0  0  0  0
   -5.1814   -2.6490    0.0000 C   0  0  0  0  0  0  0  0  0  0  0  0
   -3.7548   -2.1855    0.0000 C   0  0  0  0  0  0  0  0  0  0  0  0
   -2.6401   -3.1891    0.0000 C   0  0  0  0  0  0  0  0  0  0  0  0
   -2.9520   -4.6564    0.0000 C   0  0  0  0  0  0  0  0  0  0  0  0
   -4.3786   -5.1199    0.0000 C   0  0  0  0  0  0  0  0  0  0  0  0
   -4.6904   -6.5871    0.0000 Cl  0  0  0  0  0  0  0  0  0  0  0  0
   -5.4933   -4.1162    0.0000 N   0  0  0  0  0  0  0  0  0  0  0  0
   -1.2135   -2.7256    0.0000 C   0  0  0  0  0  0  0  0  0  0  0  0
    0.0000   -3.6073    0.0000 C   0  0  0  0  0  0  0  0  0  0  0  0
    1.2135   -2.7256    0.0000 N   0  0  0  0  0  0  0  0  0  0  0  0
    0.7500   -1.2990    0.0000 C   0  0  0  0  0  0  0  0  0  0  0  0
    1.5000    0.0000    0.0000 N   0  0  0  0  0  0  0  0  0  0  0  0
    0.7500    1.2990    0.0000 C   0  0  0  0  0  0  0  0  0  0  0  0
   -0.7500    1.2990    0.0000 C   0  0  0  0  0  0  0  0  0  0  0  0
   -1.5000    0.0000    0.0000 C   0  0  0  0  0  0  0  0  0  0  0  0
   -0.7500   -1.2990    0.0000 C   0  0  0  0  0  0  0  0  0  0  0  0
   -8.2137    1.8293    0.0000 C   0  0  0  0  0  0  0  0  0  0  0  0
   -9.6403    1.3658    0.0000 N   0  0  0  0  0  0  0  0  0  0  0  0
  -10.7550    2.3695    0.0000 S   0  0  0  0  0  0  0  0  0  0  0  0
   -9.7513    3.4842    0.0000 O   0  0  0  0  0  0  0  0  0  0  0  0
  -11.7587    1.2548    0.0000 O   0  0  0  0  0  0  0  0  0  0  0  0
  -11.8697    3.3732    0.0000 C   0  0  0  0  0  0  0  0  0  0  0  0
  1  2  1  0
  2  3  1  0
  2  4  1  0
  4  5  1  0
  5  6  1  0
  6  7  2  0
  7  8  1  0
  8  9  2  0
  9 10  1  0
 10 11  1  0
 10 12  2  0
  8 13  1  0
 13 14  2  0
 14 15  1  0
 15 16  1  0
 16 17  2  0
 17 18  1  0
 18 19  2  0
 19 20  1  0
 20 21  2  0
  2 22  1  0
 22 23  1  0
 23 24  1  0
 24 25  2  0
 24 26  2  0
 24 27  1  0
 12  6  1  0
 21 13  1  0
 21 16  1  0
M  END
>  <Molecule>  (790) 
CHEMBL1971172

>  <Standard Type>  (790) 
Ki

>  <Standard Relation>  (790) 
=

>  <Standard Value>  (790) 
501.19

>  <Standard Units>  (790) 
nM

>  <pChEMBL Value>  (790) 
6.3

>  <Comment>  (790) 
active

>  <Compound Key>  (790) 
SID103904219

>  <Assay>  (790) 
CHEMBL1963742

>  <Assay Description>  (790) 
PUBCHEM_BIOASSAY: Navigating the Kinome. (Class of assay: other) Panel member name: JAK3

>  <BAO Format>  (790) 
assay format

>  <Target>  (790) 
CHEMBL2148

>  <Target Pref. Name>  (790) 
Tyrosine-protein kinase JAK3

>  <Target Organism>  (790) 
Homo sapiens

>  <Target Type>  (790) 
SINGLE PROTEIN

>  <Document>  (790) 
CHEMBL1201862

>  <Source>  (790) 
PubChem BioAssays

>  <Max Phase>  (790) 
0

>  <#Ro5 Violations>  (790) 
0

>  <Molecular Weight>  (790) 
407.93

>  <Ligand Efficiency BEI>  (790) 
nan

>  <Ligand Efficiency LE>  (790) 
nan

>  <Ligand Efficiency LLE>  (790) 
nan

>  <Ligand Efficiency SEI>  (790) 
nan

>  <ALogP>  (790) 
3.27

>  <Assay Organism>  (790) 
nan

>  <Assay Tissue ChEMBL ID>  (790) 
nan

>  <Assay Tissue Name>  (790) 
nan

>  <Assay Cell Type>  (790) 
nan

>  <Assay Subcellular Fraction>  (790) 
nan

>  <Organism Tax ID>  (790) 
9606

>  <BAO Format ID>  (790) 
BAO_0000019

>  <Published Type>  (790) 
nan

>  <Published Relation>  (790) 
nan

>  <Published Value>  (790) 
nan

>  <Published Units>  (790) 
nan

>  <Canonical Smiles>  (790) 
CC(C)(CNc1cc(cc(Cl)n1)c2c[nH]c3ncccc23)CNS(=O)(=O)C

>  <Data Validity Comment>  (790) 
nan

>  <Document Journal>  (790) 
nan

>  <Document Year>  (790) 
nan

>  <SRC ID>  (790) 
7

>  <UO Units>  (790) 
UO_0000065

>  <Potential Duplicate>  (790) 
False

>  <Class>  (790) 
1

$$$$

     RDKit          2D

 19 20  0  0  0  0  0  0  0  0999 V2000
    0.4775  -12.2701    0.0000 O   0  0  0  0  0  0  0  0  0  0  0  0
    1.8478  -11.6600    0.0000 N   0  0  0  0  0  0  0  0  0  0  0  0
    3.0613  -12.5417    0.0000 O   0  0  0  0  0  0  0  0  0  0  0  0
    2.0046  -10.1682    0.0000 C   0  0  0  0  0  0  0  0  0  0  0  0
    3.3037   -9.4182    0.0000 C   0  0  0  0  0  0  0  0  0  0  0  0
    2.9918   -7.9510    0.0000 N   0  0  0  0  0  0  0  0  0  0  0  0
    1.5000   -7.7942    0.0000 C   0  0  0  0  0  0  0  0  0  0  0  0
    0.7500   -6.4952    0.0000 N   0  0  0  0  0  0  0  0  0  0  0  0
    1.5000   -5.1962    0.0000 C   0  0  0  0  0  0  0  0  0  0  0  0
    3.0000   -5.1962    0.0000 O   0  0  0  0  0  0  0  0  0  0  0  0
    0.7500   -3.8971    0.0000 N   0  0  0  0  0  0  0  0  0  0  0  0
    1.5000   -2.5981    0.0000 C   0  0  0  0  0  0  0  0  0  0  0  0
    0.7500   -1.2990    0.0000 C   0  0  0  0  0  0  0  0  0  0  0  0
    1.5000    0.0000    0.0000 C   0  0  0  0  0  0  0  0  0  0  0  0
    0.7500    1.2990    0.0000 C   0  0  0  0  0  0  0  0  0  0  0  0
   -0.7500    1.2990    0.0000 C   0  0  0  0  0  0  0  0  0  0  0  0
   -1.5000    0.0000    0.0000 C   0  0  0  0  0  0  0  0  0  0  0  0
   -0.7500   -1.2990    0.0000 C   0  0  0  0  0  0  0  0  0  0  0  0
    0.8899   -9.1645    0.0000 S   0  0  0  0  0  0  0  0  0  0  0  0
  1  2  1  0
  2  3  2  0
  2  4  1  0
  4  5  2  0
  5  6  1  0
  6  7  2  0
  7  8  1  0
  8  9  1  0
  9 10  2  0
  9 11  1  0
 11 12  1  0
 12 13  1  0
 13 14  2  0
 14 15  1  0
 15 16  2  0
 16 17  1  0
 17 18  2  0
  7 19  1  0
 19  4  1  0
 18 13  1  0
M  CHG  2   1  -1   2   1
M  END
>  <Molecule>  (791) 
CHEMBL1964644

>  <Standard Type>  (791) 
Ki

>  <Standard Relation>  (791) 
>

>  <Standard Value>  (791) 
1584.89

>  <Standard Units>  (791) 
nM

>  <pChEMBL Value>  (791) 
nan

>  <Comment>  (791) 
inactive

>  <Compound Key>  (791) 
SID103905106

>  <Assay>  (791) 
CHEMBL1963742

>  <Assay Description>  (791) 
PUBCHEM_BIOASSAY: Navigating the Kinome. (Class of assay: other) Panel member name: JAK3

>  <BAO Format>  (791) 
assay format

>  <Target>  (791) 
CHEMBL2148

>  <Target Pref. Name>  (791) 
Tyrosine-protein kinase JAK3

>  <Target Organism>  (791) 
Homo sapiens

>  <Target Type>  (791) 
SINGLE PROTEIN

>  <Document>  (791) 
CHEMBL1201862

>  <Source>  (791) 
PubChem BioAssays

>  <Max Phase>  (791) 
0

>  <#Ro5 Violations>  (791) 
0

>  <Molecular Weight>  (791) 
278.29

>  <Ligand Efficiency BEI>  (791) 
nan

>  <Ligand Efficiency LE>  (791) 
nan

>  <Ligand Efficiency LLE>  (791) 
nan

>  <Ligand Efficiency SEI>  (791) 
nan

>  <ALogP>  (791) 
2.37

>  <Assay Organism>  (791) 
nan

>  <Assay Tissue ChEMBL ID>  (791) 
nan

>  <Assay Tissue Name>  (791) 
nan

>  <Assay Cell Type>  (791) 
nan

>  <Assay Subcellular Fraction>  (791) 
nan

>  <Organism Tax ID>  (791) 
9606

>  <BAO Format ID>  (791) 
BAO_0000019

>  <Published Type>  (791) 
nan

>  <Published Relation>  (791) 
nan

>  <Published Value>  (791) 
nan

>  <Published Units>  (791) 
nan

>  <Canonical Smiles>  (791) 
[O-][N+](=O)c1cnc(NC(=O)NCc2ccccc2)s1

>  <Data Validity Comment>  (791) 
nan

>  <Document Journal>  (791) 
nan

>  <Document Year>  (791) 
nan

>  <SRC ID>  (791) 
7

>  <UO Units>  (791) 
UO_0000065

>  <Potential Duplicate>  (791) 
False

>  <Class>  (791) 
0

$$$$

     RDKit          2D

 31 35  0  0  0  0  0  0  0  0999 V2000
   -3.8876   -9.0580    0.0000 C   0  0  0  0  0  0  0  0  0  0  0  0
   -3.5757   -7.5908    0.0000 N   0  0  0  0  0  0  0  0  0  0  0  0
   -4.6904   -6.5871    0.0000 C   0  0  0  0  0  0  0  0  0  0  0  0
   -4.3786   -5.1199    0.0000 C   0  0  0  0  0  0  0  0  0  0  0  0
   -2.9520   -4.6564    0.0000 C   0  0  0  0  0  0  0  0  0  0  0  0
   -1.8373   -5.6601    0.0000 C   0  0  0  0  0  0  0  0  0  0  0  0
   -2.1491   -7.1273    0.0000 C   0  0  0  0  0  0  0  0  0  0  0  0
   -2.6401   -3.1891    0.0000 C   0  0  0  0  0  0  0  0  0  0  0  0
   -3.7548   -2.1855    0.0000 O   0  0  0  0  0  0  0  0  0  0  0  0
   -1.2135   -2.7256    0.0000 N   0  0  0  0  0  0  0  0  0  0  0  0
    0.0000   -3.6073    0.0000 N   0  0  0  0  0  0  0  0  0  0  0  0
    1.2135   -2.7256    0.0000 C   0  0  0  0  0  0  0  0  0  0  0  0
    2.6401   -3.1891    0.0000 N   0  0  0  0  0  0  0  0  0  0  0  0
    0.7500   -1.2990    0.0000 C   0  0  0  0  0  0  0  0  0  0  0  0
    1.5000    0.0000    0.0000 C   0  0  0  0  0  0  0  0  0  0  0  0
    0.7500    1.2990    0.0000 C   0  0  0  0  0  0  0  0  0  0  0  0
   -0.7500    1.2990    0.0000 C   0  0  0  0  0  0  0  0  0  0  0  0
   -1.5000    0.0000    0.0000 C   0  0  0  0  0  0  0  0  0  0  0  0
   -0.7500   -1.2990    0.0000 C   0  0  0  0  0  0  0  0  0  0  0  0
    1.5000    2.5981    0.0000 C   0  0  0  0  0  0  0  0  0  0  0  0
    0.8899    3.9684    0.0000 C   0  0  0  0  0  0  0  0  0  0  0  0
    2.0046    4.9721    0.0000 N   0  0  0  0  0  0  0  0  0  0  0  0
    1.8478    6.4639    0.0000 C   0  0  0  0  0  0  0  0  0  0  0  0
    3.0613    7.3456    0.0000 C   0  0  0  0  0  0  0  0  0  0  0  0
    4.4317    6.7354    0.0000 C   0  0  0  0  0  0  0  0  0  0  0  0
    5.6452    7.6171    0.0000 C   0  0  0  0  0  0  0  0  0  0  0  0
    5.4884    9.1089    0.0000 C   0  0  0  0  0  0  0  0  0  0  0  0
    4.1181    9.7190    0.0000 C   0  0  0  0  0  0  0  0  0  0  0  0
    2.9046    8.8373    0.0000 C   0  0  0  0  0  0  0  0  0  0  0  0
    3.3037    4.2221    0.0000 N   0  0  0  0  0  0  0  0  0  0  0  0
    2.9918    2.7549    0.0000 N   0  0  0  0  0  0  0  0  0  0  0  0
  1  2  1  0
  2  3  1  0
  3  4  1  0
  4  5  1  0
  5  6  1  0
  6  7  1  0
  5  8  1  0
  8  9  2  0
  8 10  1  0
 10 11  1  0
 11 12  2  0
 12 13  1  0
 12 14  1  0
 14 15  2  0
 15 16  1  0
 16 17  2  0
 17 18  1  0
 18 19  2  0
 16 20  1  0
 20 21  2  0
 21 22  1  0
 22 23  1  0
 23 24  1  0
 24 25  2  0
 25 26  1  0
 26 27  2  0
 27 28  1  0
 28 29  2  0
 22 30  1  0
 30 31  2  0
  7  2  1  0
 19 10  1  0
 19 14  1  0
 31 20  1  0
 29 24  1  0
M  END
>  <Molecule>  (792) 
CHEMBL1978014

>  <Standard Type>  (792) 
Ki

>  <Standard Relation>  (792) 
>

>  <Standard Value>  (792) 
1584.89

>  <Standard Units>  (792) 
nM

>  <pChEMBL Value>  (792) 
nan

>  <Comment>  (792) 
inactive

>  <Compound Key>  (792) 
SID103904547

>  <Assay>  (792) 
CHEMBL1963742

>  <Assay Description>  (792) 
PUBCHEM_BIOASSAY: Navigating the Kinome. (Class of assay: other) Panel member name: JAK3

>  <BAO Format>  (792) 
assay format

>  <Target>  (792) 
CHEMBL2148

>  <Target Pref. Name>  (792) 
Tyrosine-protein kinase JAK3

>  <Target Organism>  (792) 
Homo sapiens

>  <Target Type>  (792) 
SINGLE PROTEIN

>  <Document>  (792) 
CHEMBL1201862

>  <Source>  (792) 
PubChem BioAssays

>  <Max Phase>  (792) 
0

>  <#Ro5 Violations>  (792) 
0

>  <Molecular Weight>  (792) 
415.5

>  <Ligand Efficiency BEI>  (792) 
nan

>  <Ligand Efficiency LE>  (792) 
nan

>  <Ligand Efficiency LLE>  (792) 
nan

>  <Ligand Efficiency SEI>  (792) 
nan

>  <ALogP>  (792) 
2.91

>  <Assay Organism>  (792) 
nan

>  <Assay Tissue ChEMBL ID>  (792) 
nan

>  <Assay Tissue Name>  (792) 
nan

>  <Assay Cell Type>  (792) 
nan

>  <Assay Subcellular Fraction>  (792) 
nan

>  <Organism Tax ID>  (792) 
9606

>  <BAO Format ID>  (792) 
BAO_0000019

>  <Published Type>  (792) 
nan

>  <Published Relation>  (792) 
nan

>  <Published Value>  (792) 
nan

>  <Published Units>  (792) 
nan

>  <Canonical Smiles>  (792) 
CN1CCC(CC1)C(=O)n2nc(N)c3cc(ccc23)c4cn(Cc5ccccc5)nn4

>  <Data Validity Comment>  (792) 
nan

>  <Document Journal>  (792) 
nan

>  <Document Year>  (792) 
nan

>  <SRC ID>  (792) 
7

>  <UO Units>  (792) 
UO_0000065

>  <Potential Duplicate>  (792) 
False

>  <Class>  (792) 
0

$$$$

     RDKit          2D

 24 26  0  0  0  0  0  0  0  0999 V2000
    1.7745   13.9550    0.0000 C   0  0  0  0  0  0  0  0  0  0  0  0
    1.4627   12.4878    0.0000 C   0  0  0  0  0  0  0  0  0  0  0  0
    0.0361   12.0242    0.0000 C   0  0  0  0  0  0  0  0  0  0  0  0
   -0.2758   10.5570    0.0000 N   0  0  0  0  0  0  0  0  0  0  0  0
   -1.7024   10.0935    0.0000 C   0  0  0  0  0  0  0  0  0  0  0  0
   -2.8171   11.0972    0.0000 O   0  0  0  0  0  0  0  0  0  0  0  0
   -2.0143    8.6263    0.0000 C   0  0  0  0  0  0  0  0  0  0  0  0
   -0.8995    7.6226    0.0000 C   0  0  0  0  0  0  0  0  0  0  0  0
   -1.2114    6.1554    0.0000 C   0  0  0  0  0  0  0  0  0  0  0  0
   -2.6380    5.6918    0.0000 C   0  0  0  0  0  0  0  0  0  0  0  0
   -2.9499    4.2246    0.0000 N   0  0  0  0  0  0  0  0  0  0  0  0
   -1.8351    3.2209    0.0000 C   0  0  0  0  0  0  0  0  0  0  0  0
   -0.4086    3.6844    0.0000 N   0  0  0  0  0  0  0  0  0  0  0  0
    0.7062    2.6807    0.0000 C   0  0  0  0  0  0  0  0  0  0  0  0
    2.1328    3.1443    0.0000 C   0  0  0  0  0  0  0  0  0  0  0  0
    2.4446    4.6115    0.0000 C   0  0  0  0  0  0  0  0  0  0  0  0
    0.3943    1.2135    0.0000 C   0  0  0  0  0  0  0  0  0  0  0  0
    1.2760    0.0000    0.0000 C   0  0  0  0  0  0  0  0  0  0  0  0
    0.3943   -1.2135    0.0000 C   0  0  0  0  0  0  0  0  0  0  0  0
   -1.0323   -0.7500    0.0000 N   0  0  0  0  0  0  0  0  0  0  0  0
   -1.0323    0.7500    0.0000 C   0  0  0  0  0  0  0  0  0  0  0  0
   -2.1470    1.7537    0.0000 N   0  0  0  0  0  0  0  0  0  0  0  0
   -3.7527    6.6955    0.0000 C   0  0  0  0  0  0  0  0  0  0  0  0
   -3.4408    8.1628    0.0000 C   0  0  0  0  0  0  0  0  0  0  0  0
  1  2  1  0
  2  3  1  0
  3  4  1  0
  4  5  1  0
  5  6  2  0
  5  7  1  0
  7  8  2  0
  8  9  1  0
  9 10  2  0
 10 11  1  0
 11 12  1  0
 12 13  2  0
 13 14  1  0
 14 15  1  0
 15 16  1  0
 14 17  2  0
 17 18  1  0
 18 19  2  0
 19 20  1  0
 20 21  1  0
 21 22  2  0
 10 23  1  0
 23 24  2  0
 24  7  1  0
 22 12  1  0
 21 17  1  0
M  END
>  <Molecule>  (793) 
CHEMBL1997007

>  <Standard Type>  (793) 
Ki

>  <Standard Relation>  (793) 
=

>  <Standard Value>  (793) 
3162.28

>  <Standard Units>  (793) 
nM

>  <pChEMBL Value>  (793) 
5.5

>  <Comment>  (793) 
active

>  <Compound Key>  (793) 
SID103904639

>  <Assay>  (793) 
CHEMBL1963742

>  <Assay Description>  (793) 
PUBCHEM_BIOASSAY: Navigating the Kinome. (Class of assay: other) Panel member name: JAK3

>  <BAO Format>  (793) 
assay format

>  <Target>  (793) 
CHEMBL2148

>  <Target Pref. Name>  (793) 
Tyrosine-protein kinase JAK3

>  <Target Organism>  (793) 
Homo sapiens

>  <Target Type>  (793) 
SINGLE PROTEIN

>  <Document>  (793) 
CHEMBL1201862

>  <Source>  (793) 
PubChem BioAssays

>  <Max Phase>  (793) 
0

>  <#Ro5 Violations>  (793) 
0

>  <Molecular Weight>  (793) 
323.4

>  <Ligand Efficiency BEI>  (793) 
nan

>  <Ligand Efficiency LE>  (793) 
nan

>  <Ligand Efficiency LLE>  (793) 
nan

>  <Ligand Efficiency SEI>  (793) 
nan

>  <ALogP>  (793) 
3.4

>  <Assay Organism>  (793) 
nan

>  <Assay Tissue ChEMBL ID>  (793) 
nan

>  <Assay Tissue Name>  (793) 
nan

>  <Assay Cell Type>  (793) 
nan

>  <Assay Subcellular Fraction>  (793) 
nan

>  <Organism Tax ID>  (793) 
9606

>  <BAO Format ID>  (793) 
BAO_0000019

>  <Published Type>  (793) 
nan

>  <Published Relation>  (793) 
nan

>  <Published Value>  (793) 
nan

>  <Published Units>  (793) 
nan

>  <Canonical Smiles>  (793) 
CCCNC(=O)c1ccc(Nc2nc(CC)c3cc[nH]c3n2)cc1

>  <Data Validity Comment>  (793) 
nan

>  <Document Journal>  (793) 
nan

>  <Document Year>  (793) 
nan

>  <SRC ID>  (793) 
7

>  <UO Units>  (793) 
UO_0000065

>  <Potential Duplicate>  (793) 
False

>  <Class>  (793) 
1

$$$$

     RDKit          2D

 41 45  0  0  0  0  0  0  0  0999 V2000
   -5.2500   -3.8971    0.0000 C   0  0  0  0  0  0  0  0  0  0  0  0
   -3.7500   -3.8971    0.0000 O   0  0  0  0  0  0  0  0  0  0  0  0
   -3.0000   -2.5981    0.0000 C   0  0  0  0  0  0  0  0  0  0  0  0
   -1.5000   -2.5981    0.0000 C   0  0  0  0  0  0  0  0  0  0  0  0
   -0.7500   -1.2990    0.0000 C   0  0  0  0  0  0  0  0  0  0  0  0
    0.7500   -1.2990    0.0000 C   0  0  0  0  0  0  0  0  0  0  0  0
    1.5000    0.0000    0.0000 N   0  0  0  0  0  0  0  0  0  0  0  0
    0.7500    1.2990    0.0000 C   0  0  0  0  0  0  0  0  0  0  0  0
   -0.7500    1.2990    0.0000 N   0  0  0  0  0  0  0  0  0  0  0  0
   -1.5000    0.0000    0.0000 C   0  0  0  0  0  0  0  0  0  0  0  0
   -3.0000    0.0000    0.0000 C   0  0  0  0  0  0  0  0  0  0  0  0
   -3.7500   -1.2990    0.0000 C   0  0  0  0  0  0  0  0  0  0  0  0
   -5.2500   -1.2990    0.0000 O   0  0  0  0  0  0  0  0  0  0  0  0
   -6.0000    0.0000    0.0000 C   0  0  0  0  0  0  0  0  0  0  0  0
   -7.5000    0.0000    0.0000 C   0  0  0  0  0  0  0  0  0  0  0  0
   -8.2500    1.2990    0.0000 C   0  0  0  0  0  0  0  0  0  0  0  0
   -9.7500    1.2990    0.0000 N   0  0  0  0  0  0  0  0  0  0  0  0
  -10.5000    2.5981    0.0000 C   0  0  0  0  0  0  0  0  0  0  0  0
  -12.0000    2.5981    0.0000 C   0  0  0  0  0  0  0  0  0  0  0  0
  -12.7500    1.2990    0.0000 C   0  0  0  0  0  0  0  0  0  0  0  0
  -12.0000    0.0000    0.0000 C   0  0  0  0  0  0  0  0  0  0  0  0
  -10.5000    0.0000    0.0000 C   0  0  0  0  0  0  0  0  0  0  0  0
    1.5000   -2.5981    0.0000 N   0  0  0  0  0  0  0  0  0  0  0  0
    0.7500   -3.8971    0.0000 C   0  0  0  0  0  0  0  0  0  0  0  0
    1.5000   -5.1962    0.0000 C   0  0  0  0  0  0  0  0  0  0  0  0
    3.0000   -5.1962    0.0000 N   0  0  0  0  0  0  0  0  0  0  0  0
    3.7500   -3.8971    0.0000 C   0  0  0  0  0  0  0  0  0  0  0  0
    3.0000   -2.5981    0.0000 C   0  0  0  0  0  0  0  0  0  0  0  0
    3.7500   -6.4952    0.0000 C   0  0  0  0  0  0  0  0  0  0  0  0
    5.2500   -6.4952    0.0000 O   0  0  0  0  0  0  0  0  0  0  0  0
    3.0000   -7.7942    0.0000 N   0  0  0  0  0  0  0  0  0  0  0  0
    3.7500   -9.0933    0.0000 C   0  0  0  0  0  0  0  0  0  0  0  0
    3.0000  -10.3923    0.0000 C   0  0  0  0  0  0  0  0  0  0  0  0
    3.7500  -11.6913    0.0000 C   0  0  0  0  0  0  0  0  0  0  0  0
    5.2500  -11.6913    0.0000 C   0  0  0  0  0  0  0  0  0  0  0  0
    6.0000  -12.9904    0.0000 O   0  0  0  0  0  0  0  0  0  0  0  0
    5.2500  -14.2894    0.0000 C   0  0  0  0  0  0  0  0  0  0  0  0
    6.0000  -15.5885    0.0000 C   0  0  0  0  0  0  0  0  0  0  0  0
    3.7500  -14.2894    0.0000 C   0  0  0  0  0  0  0  0  0  0  0  0
    6.0000  -10.3923    0.0000 C   0  0  0  0  0  0  0  0  0  0  0  0
    5.2500   -9.0933    0.0000 C   0  0  0  0  0  0  0  0  0  0  0  0
  1  2  1  0
  2  3  1  0
  3  4  2  0
  4  5  1  0
  5  6  2  0
  6  7  1  0
  7  8  2  0
  8  9  1  0
  9 10  2  0
 10 11  1  0
 11 12  2  0
 12 13  1  0
 13 14  1  0
 14 15  1  0
 15 16  1  0
 16 17  1  0
 17 18  1  0
 18 19  1  0
 19 20  1  0
 20 21  1  0
 21 22  1  0
  6 23  1  0
 23 24  1  0
 24 25  1  0
 25 26  1  0
 26 27  1  0
 27 28  1  0
 26 29  1  0
 29 30  2  0
 29 31  1  0
 31 32  1  0
 32 33  2  0
 33 34  1  0
 34 35  2  0
 35 36  1  0
 36 37  1  0
 37 38  1  0
 37 39  1  0
 35 40  1  0
 40 41  2  0
 12  3  1  0
 10  5  1  0
 22 17  1  0
 28 23  1  0
 41 32  1  0
M  END
>  <Molecule>  (794) 
CHEMBL124660

>  <Standard Type>  (794) 
Ki

>  <Standard Relation>  (794) 
>

>  <Standard Value>  (794) 
3981.07

>  <Standard Units>  (794) 
nM

>  <pChEMBL Value>  (794) 
nan

>  <Comment>  (794) 
inactive

>  <Compound Key>  (794) 
SID103905342

>  <Assay>  (794) 
CHEMBL1963742

>  <Assay Description>  (794) 
PUBCHEM_BIOASSAY: Navigating the Kinome. (Class of assay: other) Panel member name: JAK3

>  <BAO Format>  (794) 
assay format

>  <Target>  (794) 
CHEMBL2148

>  <Target Pref. Name>  (794) 
Tyrosine-protein kinase JAK3

>  <Target Organism>  (794) 
Homo sapiens

>  <Target Type>  (794) 
SINGLE PROTEIN

>  <Document>  (794) 
CHEMBL1201862

>  <Source>  (794) 
PubChem BioAssays

>  <Max Phase>  (794) 
2

>  <#Ro5 Violations>  (794) 
2

>  <Molecular Weight>  (794) 
562.72

>  <Ligand Efficiency BEI>  (794) 
nan

>  <Ligand Efficiency LE>  (794) 
nan

>  <Ligand Efficiency LLE>  (794) 
nan

>  <Ligand Efficiency SEI>  (794) 
nan

>  <ALogP>  (794) 
5.03

>  <Assay Organism>  (794) 
nan

>  <Assay Tissue ChEMBL ID>  (794) 
nan

>  <Assay Tissue Name>  (794) 
nan

>  <Assay Cell Type>  (794) 
nan

>  <Assay Subcellular Fraction>  (794) 
nan

>  <Organism Tax ID>  (794) 
9606

>  <BAO Format ID>  (794) 
BAO_0000019

>  <Published Type>  (794) 
nan

>  <Published Relation>  (794) 
nan

>  <Published Value>  (794) 
nan

>  <Published Units>  (794) 
nan

>  <Canonical Smiles>  (794) 
COc1cc2c(ncnc2cc1OCCCN3CCCCC3)N4CCN(CC4)C(=O)Nc5ccc(OC(C)C)cc5

>  <Data Validity Comment>  (794) 
nan

>  <Document Journal>  (794) 
nan

>  <Document Year>  (794) 
nan

>  <SRC ID>  (794) 
7

>  <UO Units>  (794) 
UO_0000065

>  <Potential Duplicate>  (794) 
False

>  <Class>  (794) 
0

$$$$

     RDKit          2D

 27 30  0  0  0  0  0  0  0  0999 V2000
  -14.5438   -2.9592    0.0000 C   0  0  0  0  0  0  0  0  0  0  0  0
  -13.1172   -2.4957    0.0000 C   0  0  0  0  0  0  0  0  0  0  0  0
  -12.8053   -1.0285    0.0000 C   0  0  0  0  0  0  0  0  0  0  0  0
  -11.3787   -0.5649    0.0000 C   0  0  0  0  0  0  0  0  0  0  0  0
  -10.2640   -1.5686    0.0000 C   0  0  0  0  0  0  0  0  0  0  0  0
  -10.5759   -3.0359    0.0000 C   0  0  0  0  0  0  0  0  0  0  0  0
   -9.4612   -4.0396    0.0000 N   0  0  0  0  0  0  0  0  0  0  0  0
   -8.0346   -3.5760    0.0000 C   0  0  0  0  0  0  0  0  0  0  0  0
   -7.7227   -2.1088    0.0000 O   0  0  0  0  0  0  0  0  0  0  0  0
   -6.9199   -4.5797    0.0000 N   0  0  0  0  0  0  0  0  0  0  0  0
   -5.4933   -4.1162    0.0000 C   0  0  0  0  0  0  0  0  0  0  0  0
   -4.3786   -5.1199    0.0000 C   0  0  0  0  0  0  0  0  0  0  0  0
   -2.9520   -4.6564    0.0000 C   0  0  0  0  0  0  0  0  0  0  0  0
   -2.6401   -3.1891    0.0000 C   0  0  0  0  0  0  0  0  0  0  0  0
   -3.7548   -2.1855    0.0000 C   0  0  0  0  0  0  0  0  0  0  0  0
   -5.1814   -2.6490    0.0000 C   0  0  0  0  0  0  0  0  0  0  0  0
   -1.2135   -2.7256    0.0000 C   0  0  0  0  0  0  0  0  0  0  0  0
    0.0000   -3.6073    0.0000 C   0  0  0  0  0  0  0  0  0  0  0  0
    1.2135   -2.7256    0.0000 S   0  0  0  0  0  0  0  0  0  0  0  0
    0.7500   -1.2990    0.0000 C   0  0  0  0  0  0  0  0  0  0  0  0
    1.5000    0.0000    0.0000 C   0  0  0  0  0  0  0  0  0  0  0  0
    0.7500    1.2990    0.0000 C   0  0  0  0  0  0  0  0  0  0  0  0
   -0.7500    1.2990    0.0000 N   0  0  0  0  0  0  0  0  0  0  0  0
   -1.5000    0.0000    0.0000 C   0  0  0  0  0  0  0  0  0  0  0  0
   -3.0000    0.0000    0.0000 N   0  0  0  0  0  0  0  0  0  0  0  0
   -0.7500   -1.2990    0.0000 C   0  0  0  0  0  0  0  0  0  0  0  0
  -12.0025   -3.4994    0.0000 C   0  0  0  0  0  0  0  0  0  0  0  0
  1  2  1  0
  2  3  2  0
  3  4  1  0
  4  5  2  0
  5  6  1  0
  6  7  1  0
  7  8  1  0
  8  9  2  0
  8 10  1  0
 10 11  1  0
 11 12  2  0
 12 13  1  0
 13 14  2  0
 14 15  1  0
 15 16  2  0
 14 17  1  0
 17 18  2  0
 18 19  1  0
 19 20  1  0
 20 21  2  0
 21 22  1  0
 22 23  2  0
 23 24  1  0
 24 25  1  0
 24 26  2  0
  6 27  2  0
 27  2  1  0
 16 11  1  0
 26 17  1  0
 26 20  1  0
M  END
>  <Molecule>  (795) 
CHEMBL394619

>  <Standard Type>  (795) 
Ki

>  <Standard Relation>  (795) 
>

>  <Standard Value>  (795) 
1584.89

>  <Standard Units>  (795) 
nM

>  <pChEMBL Value>  (795) 
nan

>  <Comment>  (795) 
inactive

>  <Compound Key>  (795) 
SID103904295

>  <Assay>  (795) 
CHEMBL1963742

>  <Assay Description>  (795) 
PUBCHEM_BIOASSAY: Navigating the Kinome. (Class of assay: other) Panel member name: JAK3

>  <BAO Format>  (795) 
assay format

>  <Target>  (795) 
CHEMBL2148

>  <Target Pref. Name>  (795) 
Tyrosine-protein kinase JAK3

>  <Target Organism>  (795) 
Homo sapiens

>  <Target Type>  (795) 
SINGLE PROTEIN

>  <Document>  (795) 
CHEMBL1201862

>  <Source>  (795) 
PubChem BioAssays

>  <Max Phase>  (795) 
0

>  <#Ro5 Violations>  (795) 
1

>  <Molecular Weight>  (795) 
374.47

>  <Ligand Efficiency BEI>  (795) 
nan

>  <Ligand Efficiency LE>  (795) 
nan

>  <Ligand Efficiency LLE>  (795) 
nan

>  <Ligand Efficiency SEI>  (795) 
nan

>  <ALogP>  (795) 
5.5

>  <Assay Organism>  (795) 
nan

>  <Assay Tissue ChEMBL ID>  (795) 
nan

>  <Assay Tissue Name>  (795) 
nan

>  <Assay Cell Type>  (795) 
nan

>  <Assay Subcellular Fraction>  (795) 
nan

>  <Organism Tax ID>  (795) 
9606

>  <BAO Format ID>  (795) 
BAO_0000019

>  <Published Type>  (795) 
nan

>  <Published Relation>  (795) 
nan

>  <Published Value>  (795) 
nan

>  <Published Units>  (795) 
nan

>  <Canonical Smiles>  (795) 
Cc1cccc(NC(=O)Nc2ccc(cc2)c3csc4ccnc(N)c34)c1

>  <Data Validity Comment>  (795) 
nan

>  <Document Journal>  (795) 
nan

>  <Document Year>  (795) 
nan

>  <SRC ID>  (795) 
7

>  <UO Units>  (795) 
UO_0000065

>  <Potential Duplicate>  (795) 
False

>  <Class>  (795) 
0

$$$$

     RDKit          2D

 22 25  0  0  0  0  0  0  0  0999 V2000
   -2.6401   -3.1891    0.0000 N   0  0  0  0  0  0  0  0  0  0  0  0
   -1.2135   -2.7256    0.0000 C   0  0  0  0  0  0  0  0  0  0  0  0
   -0.0000   -3.6073    0.0000 N   0  0  0  0  0  0  0  0  0  0  0  0
    1.2135   -2.7256    0.0000 N   0  0  0  0  0  0  0  0  0  0  0  0
    0.7500   -1.2990    0.0000 C   0  0  0  0  0  0  0  0  0  0  0  0
    1.5000    0.0000    0.0000 C   0  0  0  0  0  0  0  0  0  0  0  0
    0.7500    1.2990    0.0000 C   0  0  0  0  0  0  0  0  0  0  0  0
   -0.7500    1.2990    0.0000 C   0  0  0  0  0  0  0  0  0  0  0  0
   -1.5000    0.0000    0.0000 C   0  0  0  0  0  0  0  0  0  0  0  0
   -0.7500   -1.2990    0.0000 C   0  0  0  0  0  0  0  0  0  0  0  0
   -1.5000    2.5981    0.0000 C   0  0  0  0  0  0  0  0  0  0  0  0
   -2.9918    2.7549    0.0000 C   0  0  0  0  0  0  0  0  0  0  0  0
   -3.3037    4.2221    0.0000 N   0  0  0  0  0  0  0  0  0  0  0  0
   -4.6740    4.8322    0.0000 C   0  0  0  0  0  0  0  0  0  0  0  0
   -4.8308    6.3240    0.0000 C   0  0  0  0  0  0  0  0  0  0  0  0
   -3.6172    7.2057    0.0000 C   0  0  0  0  0  0  0  0  0  0  0  0
   -3.7740    8.6974    0.0000 C   0  0  0  0  0  0  0  0  0  0  0  0
   -5.1443    9.3075    0.0000 C   0  0  0  0  0  0  0  0  0  0  0  0
   -6.3579    8.4259    0.0000 C   0  0  0  0  0  0  0  0  0  0  0  0
   -6.2011    6.9341    0.0000 C   0  0  0  0  0  0  0  0  0  0  0  0
   -2.0046    4.9721    0.0000 N   0  0  0  0  0  0  0  0  0  0  0  0
   -0.8899    3.9684    0.0000 N   0  0  0  0  0  0  0  0  0  0  0  0
  1  2  1  0
  2  3  2  0
  3  4  1  0
  4  5  1  0
  5  6  2  0
  6  7  1  0
  7  8  2  0
  8  9  1  0
  9 10  2  0
  8 11  1  0
 11 12  2  0
 12 13  1  0
 13 14  1  0
 14 15  1  0
 15 16  2  0
 16 17  1  0
 17 18  2  0
 18 19  1  0
 19 20  2  0
 13 21  1  0
 21 22  2  0
 10  2  1  0
 10  5  1  0
 22 11  1  0
 20 15  1  0
M  END
>  <Molecule>  (796) 
CHEMBL1682346

>  <Standard Type>  (796) 
Ki

>  <Standard Relation>  (796) 
=

>  <Standard Value>  (796) 
1258.93

>  <Standard Units>  (796) 
nM

>  <pChEMBL Value>  (796) 
5.9

>  <Comment>  (796) 
active

>  <Compound Key>  (796) 
SID103904471

>  <Assay>  (796) 
CHEMBL1963742

>  <Assay Description>  (796) 
PUBCHEM_BIOASSAY: Navigating the Kinome. (Class of assay: other) Panel member name: JAK3

>  <BAO Format>  (796) 
assay format

>  <Target>  (796) 
CHEMBL2148

>  <Target Pref. Name>  (796) 
Tyrosine-protein kinase JAK3

>  <Target Organism>  (796) 
Homo sapiens

>  <Target Type>  (796) 
SINGLE PROTEIN

>  <Document>  (796) 
CHEMBL1201862

>  <Source>  (796) 
PubChem BioAssays

>  <Max Phase>  (796) 
0

>  <#Ro5 Violations>  (796) 
0

>  <Molecular Weight>  (796) 
290.33

>  <Ligand Efficiency BEI>  (796) 
nan

>  <Ligand Efficiency LE>  (796) 
nan

>  <Ligand Efficiency LLE>  (796) 
nan

>  <Ligand Efficiency SEI>  (796) 
nan

>  <ALogP>  (796) 
2.45

>  <Assay Organism>  (796) 
nan

>  <Assay Tissue ChEMBL ID>  (796) 
nan

>  <Assay Tissue Name>  (796) 
nan

>  <Assay Cell Type>  (796) 
nan

>  <Assay Subcellular Fraction>  (796) 
nan

>  <Organism Tax ID>  (796) 
9606

>  <BAO Format ID>  (796) 
BAO_0000019

>  <Published Type>  (796) 
nan

>  <Published Relation>  (796) 
nan

>  <Published Value>  (796) 
nan

>  <Published Units>  (796) 
nan

>  <Canonical Smiles>  (796) 
Nc1n[nH]c2ccc(cc12)c3cn(Cc4ccccc4)nn3

>  <Data Validity Comment>  (796) 
nan

>  <Document Journal>  (796) 
nan

>  <Document Year>  (796) 
nan

>  <SRC ID>  (796) 
7

>  <UO Units>  (796) 
UO_0000065

>  <Potential Duplicate>  (796) 
False

>  <Class>  (796) 
1

$$$$

     RDKit          2D

 25 27  0  0  0  0  0  0  0  0999 V2000
    3.7500   -1.2990    0.0000 C   0  0  0  0  0  0  0  0  0  0  0  0
    3.0000    0.0000    0.0000 O   0  0  0  0  0  0  0  0  0  0  0  0
    1.5000    0.0000    0.0000 C   0  0  0  0  0  0  0  0  0  0  0  0
    0.7500   -1.2990    0.0000 C   0  0  0  0  0  0  0  0  0  0  0  0
   -0.7500   -1.2990    0.0000 C   0  0  0  0  0  0  0  0  0  0  0  0
   -1.5000    0.0000    0.0000 C   0  0  0  0  0  0  0  0  0  0  0  0
   -0.7500    1.2990    0.0000 C   0  0  0  0  0  0  0  0  0  0  0  0
    0.7500    1.2990    0.0000 C   0  0  0  0  0  0  0  0  0  0  0  0
   -1.5000    2.5981    0.0000 C   0  0  0  0  0  0  0  0  0  0  0  0
   -0.7500    3.8971    0.0000 C   0  0  0  0  0  0  0  0  0  0  0  0
   -3.0000    2.5981    0.0000 N   0  0  0  0  0  0  0  0  0  0  0  0
   -3.7500    3.8971    0.0000 C   0  0  0  0  0  0  0  0  0  0  0  0
   -3.0000    5.1962    0.0000 O   0  0  0  0  0  0  0  0  0  0  0  0
   -5.2500    3.8971    0.0000 C   0  0  0  0  0  0  0  0  0  0  0  0
   -6.0000    5.1962    0.0000 C   0  0  0  0  0  0  0  0  0  0  0  0
   -7.5000    5.1962    0.0000 C   0  0  0  0  0  0  0  0  0  0  0  0
   -8.2500    3.8971    0.0000 C   0  0  0  0  0  0  0  0  0  0  0  0
   -7.5000    2.5981    0.0000 C   0  0  0  0  0  0  0  0  0  0  0  0
   -6.0000    2.5981    0.0000 C   0  0  0  0  0  0  0  0  0  0  0  0
   -9.7500    3.8971    0.0000 C   0  0  0  0  0  0  0  0  0  0  0  0
  -10.5000    5.1962    0.0000 C   0  0  0  0  0  0  0  0  0  0  0  0
  -12.0000    5.1962    0.0000 C   0  0  0  0  0  0  0  0  0  0  0  0
  -12.7500    3.8971    0.0000 N   0  0  0  0  0  0  0  0  0  0  0  0
  -12.0000    2.5981    0.0000 C   0  0  0  0  0  0  0  0  0  0  0  0
  -10.5000    2.5981    0.0000 C   0  0  0  0  0  0  0  0  0  0  0  0
  1  2  1  0
  2  3  1  0
  3  4  2  0
  4  5  1  0
  5  6  2  0
  6  7  1  0
  7  8  2  0
  7  9  1  0
  9 10  1  0
  9 11  1  0
 11 12  1  0
 12 13  2  0
 12 14  1  0
 14 15  2  0
 15 16  1  0
 16 17  2  0
 17 18  1  0
 18 19  2  0
 17 20  1  0
 20 21  2  0
 21 22  1  0
 22 23  2  0
 23 24  1  0
 24 25  2  0
  8  3  1  0
 19 14  1  0
 25 20  1  0
M  END
>  <Molecule>  (797) 
CHEMBL1975121

>  <Standard Type>  (797) 
Ki

>  <Standard Relation>  (797) 
>

>  <Standard Value>  (797) 
5011.87

>  <Standard Units>  (797) 
nM

>  <pChEMBL Value>  (797) 
nan

>  <Comment>  (797) 
inactive

>  <Compound Key>  (797) 
SID103904588

>  <Assay>  (797) 
CHEMBL1963742

>  <Assay Description>  (797) 
PUBCHEM_BIOASSAY: Navigating the Kinome. (Class of assay: other) Panel member name: JAK3

>  <BAO Format>  (797) 
assay format

>  <Target>  (797) 
CHEMBL2148

>  <Target Pref. Name>  (797) 
Tyrosine-protein kinase JAK3

>  <Target Organism>  (797) 
Homo sapiens

>  <Target Type>  (797) 
SINGLE PROTEIN

>  <Document>  (797) 
CHEMBL1201862

>  <Source>  (797) 
PubChem BioAssays

>  <Max Phase>  (797) 
0

>  <#Ro5 Violations>  (797) 
0

>  <Molecular Weight>  (797) 
332.4

>  <Ligand Efficiency BEI>  (797) 
nan

>  <Ligand Efficiency LE>  (797) 
nan

>  <Ligand Efficiency LLE>  (797) 
nan

>  <Ligand Efficiency SEI>  (797) 
nan

>  <ALogP>  (797) 
4.25

>  <Assay Organism>  (797) 
nan

>  <Assay Tissue ChEMBL ID>  (797) 
nan

>  <Assay Tissue Name>  (797) 
nan

>  <Assay Cell Type>  (797) 
nan

>  <Assay Subcellular Fraction>  (797) 
nan

>  <Organism Tax ID>  (797) 
9606

>  <BAO Format ID>  (797) 
BAO_0000019

>  <Published Type>  (797) 
nan

>  <Published Relation>  (797) 
nan

>  <Published Value>  (797) 
nan

>  <Published Units>  (797) 
nan

>  <Canonical Smiles>  (797) 
COc1cccc(c1)C(C)NC(=O)c2ccc(cc2)c3ccncc3

>  <Data Validity Comment>  (797) 
nan

>  <Document Journal>  (797) 
nan

>  <Document Year>  (797) 
nan

>  <SRC ID>  (797) 
7

>  <UO Units>  (797) 
UO_0000065

>  <Potential Duplicate>  (797) 
False

>  <Class>  (797) 
0

$$$$

     RDKit          2D

 17 19  0  0  0  0  0  0  0  0999 V2000
   -8.7607    6.8957    0.0000 C   0  0  0  0  0  0  0  0  0  0  0  0
   -7.2690    6.7389    0.0000 C   0  0  0  0  0  0  0  0  0  0  0  0
   -6.6589    5.3686    0.0000 C   0  0  0  0  0  0  0  0  0  0  0  0
   -5.1671    5.2118    0.0000 C   0  0  0  0  0  0  0  0  0  0  0  0
   -4.4171    3.9127    0.0000 C   0  0  0  0  0  0  0  0  0  0  0  0
   -2.9499    4.2246    0.0000 C   0  0  0  0  0  0  0  0  0  0  0  0
   -2.7931    5.7164    0.0000 O   0  0  0  0  0  0  0  0  0  0  0  0
   -4.1634    6.3265    0.0000 N   0  0  0  0  0  0  0  0  0  0  0  0
   -1.8351    3.2209    0.0000 C   0  0  0  0  0  0  0  0  0  0  0  0
   -0.4086    3.6844    0.0000 C   0  0  0  0  0  0  0  0  0  0  0  0
    0.7062    2.6807    0.0000 C   0  0  0  0  0  0  0  0  0  0  0  0
    0.3943    1.2135    0.0000 C   0  0  0  0  0  0  0  0  0  0  0  0
    1.2760    0.0000    0.0000 N   0  0  0  0  0  0  0  0  0  0  0  0
    0.3943   -1.2135    0.0000 N   0  0  0  0  0  0  0  0  0  0  0  0
   -1.0323   -0.7500    0.0000 C   0  0  0  0  0  0  0  0  0  0  0  0
   -1.0323    0.7500    0.0000 C   0  0  0  0  0  0  0  0  0  0  0  0
   -2.1470    1.7537    0.0000 C   0  0  0  0  0  0  0  0  0  0  0  0
  1  2  1  0
  2  3  1  0
  3  4  1  0
  4  5  1  0
  5  6  2  0
  6  7  1  0
  7  8  1  0
  6  9  1  0
  9 10  2  0
 10 11  1  0
 11 12  2  0
 12 13  1  0
 13 14  1  0
 14 15  2  0
 15 16  1  0
 16 17  2  0
  8  4  2  0
 17  9  1  0
 16 12  1  0
M  END
>  <Molecule>  (798) 
CHEMBL1682359

>  <Standard Type>  (798) 
Ki

>  <Standard Relation>  (798) 
>

>  <Standard Value>  (798) 
1584.89

>  <Standard Units>  (798) 
nM

>  <pChEMBL Value>  (798) 
nan

>  <Comment>  (798) 
inactive

>  <Compound Key>  (798) 
SID103904543

>  <Assay>  (798) 
CHEMBL1963742

>  <Assay Description>  (798) 
PUBCHEM_BIOASSAY: Navigating the Kinome. (Class of assay: other) Panel member name: JAK3

>  <BAO Format>  (798) 
assay format

>  <Target>  (798) 
CHEMBL2148

>  <Target Pref. Name>  (798) 
Tyrosine-protein kinase JAK3

>  <Target Organism>  (798) 
Homo sapiens

>  <Target Type>  (798) 
SINGLE PROTEIN

>  <Document>  (798) 
CHEMBL1201862

>  <Source>  (798) 
PubChem BioAssays

>  <Max Phase>  (798) 
0

>  <#Ro5 Violations>  (798) 
0

>  <Molecular Weight>  (798) 
227.27

>  <Ligand Efficiency BEI>  (798) 
nan

>  <Ligand Efficiency LE>  (798) 
nan

>  <Ligand Efficiency LLE>  (798) 
nan

>  <Ligand Efficiency SEI>  (798) 
nan

>  <ALogP>  (798) 
3.17

>  <Assay Organism>  (798) 
nan

>  <Assay Tissue ChEMBL ID>  (798) 
nan

>  <Assay Tissue Name>  (798) 
nan

>  <Assay Cell Type>  (798) 
nan

>  <Assay Subcellular Fraction>  (798) 
nan

>  <Organism Tax ID>  (798) 
9606

>  <BAO Format ID>  (798) 
BAO_0000019

>  <Published Type>  (798) 
nan

>  <Published Relation>  (798) 
nan

>  <Published Value>  (798) 
nan

>  <Published Units>  (798) 
nan

>  <Canonical Smiles>  (798) 
CCCc1cc(on1)c2ccc3[nH]ncc3c2

>  <Data Validity Comment>  (798) 
nan

>  <Document Journal>  (798) 
nan

>  <Document Year>  (798) 
nan

>  <SRC ID>  (798) 
7

>  <UO Units>  (798) 
UO_0000065

>  <Potential Duplicate>  (798) 
False

>  <Class>  (798) 
0

$$$$

     RDKit          2D

 38 41  0  0  0  0  0  0  0  0999 V2000
    8.0406   12.1352    0.0000 C   0  0  0  0  0  0  0  0  0  0  0  0
    7.5771   10.7086    0.0000 C   0  0  0  0  0  0  0  0  0  0  0  0
    8.5808    9.5939    0.0000 C   0  0  0  0  0  0  0  0  0  0  0  0
    8.1173    8.1673    0.0000 C   0  0  0  0  0  0  0  0  0  0  0  0
    6.6501    7.8555    0.0000 C   0  0  0  0  0  0  0  0  0  0  0  0
    5.6464    8.9702    0.0000 C   0  0  0  0  0  0  0  0  0  0  0  0
    4.1791    8.6583    0.0000 N   0  0  0  0  0  0  0  0  0  0  0  0
    3.7156    7.2317    0.0000 C   0  0  0  0  0  0  0  0  0  0  0  0
    4.7193    6.1170    0.0000 O   0  0  0  0  0  0  0  0  0  0  0  0
    2.2484    6.9199    0.0000 N   0  0  0  0  0  0  0  0  0  0  0  0
    1.7849    5.4933    0.0000 C   0  0  0  0  0  0  0  0  0  0  0  0
    0.3177    5.1814    0.0000 C   0  0  0  0  0  0  0  0  0  0  0  0
   -0.1459    3.7548    0.0000 C   0  0  0  0  0  0  0  0  0  0  0  0
    0.8578    2.6401    0.0000 C   0  0  0  0  0  0  0  0  0  0  0  0
    2.3250    2.9520    0.0000 C   0  0  0  0  0  0  0  0  0  0  0  0
    2.7886    4.3786    0.0000 C   0  0  0  0  0  0  0  0  0  0  0  0
    0.3943    1.2135    0.0000 C   0  0  0  0  0  0  0  0  0  0  0  0
    1.2760    0.0000    0.0000 C   0  0  0  0  0  0  0  0  0  0  0  0
    0.3943   -1.2135    0.0000 S   0  0  0  0  0  0  0  0  0  0  0  0
   -1.0323   -0.7500    0.0000 C   0  0  0  0  0  0  0  0  0  0  0  0
   -2.3313   -1.5000    0.0000 C   0  0  0  0  0  0  0  0  0  0  0  0
   -3.6304   -0.7500    0.0000 C   0  0  0  0  0  0  0  0  0  0  0  0
   -3.6304    0.7500    0.0000 N   0  0  0  0  0  0  0  0  0  0  0  0
   -2.3313    1.5000    0.0000 C   0  0  0  0  0  0  0  0  0  0  0  0
   -2.3313    3.0000    0.0000 N   0  0  0  0  0  0  0  0  0  0  0  0
   -1.0323    0.7500    0.0000 C   0  0  0  0  0  0  0  0  0  0  0  0
   -2.3313   -3.0000    0.0000 C   0  0  0  0  0  0  0  0  0  0  0  0
   -2.3313   -4.5000    0.0000 C   0  0  0  0  0  0  0  0  0  0  0  0
   -2.3313   -6.0000    0.0000 C   0  0  0  0  0  0  0  0  0  0  0  0
   -3.6304   -6.7500    0.0000 C   0  0  0  0  0  0  0  0  0  0  0  0
   -3.6304   -8.2500    0.0000 C   0  0  0  0  0  0  0  0  0  0  0  0
   -4.9294   -9.0000    0.0000 C   0  0  0  0  0  0  0  0  0  0  0  0
   -4.9294  -10.5000    0.0000 C   0  0  0  0  0  0  0  0  0  0  0  0
   -6.2284  -11.2500    0.0000 C   0  0  0  0  0  0  0  0  0  0  0  0
   -6.2284  -12.7500    0.0000 C   0  0  0  0  0  0  0  0  0  0  0  0
   -7.5275  -13.5000    0.0000 C   0  0  0  0  0  0  0  0  0  0  0  0
   -7.5275  -15.0000    0.0000 N   0  0  0  0  0  0  0  0  0  0  0  0
    6.1099   10.3968    0.0000 C   0  0  0  0  0  0  0  0  0  0  0  0
  1  2  1  0
  2  3  2  0
  3  4  1  0
  4  5  2  0
  5  6  1  0
  6  7  1  0
  7  8  1  0
  8  9  2  0
  8 10  1  0
 10 11  1  0
 11 12  2  0
 12 13  1  0
 13 14  2  0
 14 15  1  0
 15 16  2  0
 14 17  1  0
 17 18  2  0
 18 19  1  0
 19 20  1  0
 20 21  2  0
 21 22  1  0
 22 23  2  0
 23 24  1  0
 24 25  1  0
 24 26  2  0
 21 27  1  0
 27 28  3  0
 28 29  1  0
 29 30  1  0
 30 31  1  0
 31 32  1  0
 32 33  1  0
 33 34  1  0
 34 35  1  0
 35 36  1  0
 36 37  1  0
  6 38  2  0
 38  2  1  0
 16 11  1  0
 26 17  1  0
 26 20  1  0
M  END
>  <Molecule>  (799) 
CHEMBL1978166

>  <Standard Type>  (799) 
Ki

>  <Standard Relation>  (799) 
=

>  <Standard Value>  (799) 
1584.89

>  <Standard Units>  (799) 
nM

>  <pChEMBL Value>  (799) 
5.8

>  <Comment>  (799) 
active

>  <Compound Key>  (799) 
SID103904271

>  <Assay>  (799) 
CHEMBL1963742

>  <Assay Description>  (799) 
PUBCHEM_BIOASSAY: Navigating the Kinome. (Class of assay: other) Panel member name: JAK3

>  <BAO Format>  (799) 
assay format

>  <Target>  (799) 
CHEMBL2148

>  <Target Pref. Name>  (799) 
Tyrosine-protein kinase JAK3

>  <Target Organism>  (799) 
Homo sapiens

>  <Target Type>  (799) 
SINGLE PROTEIN

>  <Document>  (799) 
CHEMBL1201862

>  <Source>  (799) 
PubChem BioAssays

>  <Max Phase>  (799) 
0

>  <#Ro5 Violations>  (799) 
2

>  <Molecular Weight>  (799) 
525.72

>  <Ligand Efficiency BEI>  (799) 
nan

>  <Ligand Efficiency LE>  (799) 
nan

>  <Ligand Efficiency LLE>  (799) 
nan

>  <Ligand Efficiency SEI>  (799) 
nan

>  <ALogP>  (799) 
7.54

>  <Assay Organism>  (799) 
nan

>  <Assay Tissue ChEMBL ID>  (799) 
nan

>  <Assay Tissue Name>  (799) 
nan

>  <Assay Cell Type>  (799) 
nan

>  <Assay Subcellular Fraction>  (799) 
nan

>  <Organism Tax ID>  (799) 
9606

>  <BAO Format ID>  (799) 
BAO_0000019

>  <Published Type>  (799) 
nan

>  <Published Relation>  (799) 
nan

>  <Published Value>  (799) 
nan

>  <Published Units>  (799) 
nan

>  <Canonical Smiles>  (799) 
Cc1cccc(NC(=O)Nc2ccc(cc2)c3csc4c(cnc(N)c34)C#CCCCCCCCCN)c1

>  <Data Validity Comment>  (799) 
nan

>  <Document Journal>  (799) 
nan

>  <Document Year>  (799) 
nan

>  <SRC ID>  (799) 
7

>  <UO Units>  (799) 
UO_0000065

>  <Potential Duplicate>  (799) 
False

>  <Class>  (799) 
1

$$$$

     RDKit          2D

 29 32  0  0  0  0  0  0  0  0999 V2000
    3.7500  -14.2894    0.0000 C   0  0  0  0  0  0  0  0  0  0  0  0
    3.0000  -12.9904    0.0000 C   0  0  0  0  0  0  0  0  0  0  0  0
    1.5000  -12.9904    0.0000 C   0  0  0  0  0  0  0  0  0  0  0  0
    0.7500  -11.6913    0.0000 C   0  0  0  0  0  0  0  0  0  0  0  0
    1.5000  -10.3923    0.0000 C   0  0  0  0  0  0  0  0  0  0  0  0
    0.7500   -9.0933    0.0000 F   0  0  0  0  0  0  0  0  0  0  0  0
    3.0000  -10.3923    0.0000 C   0  0  0  0  0  0  0  0  0  0  0  0
    3.7500   -9.0933    0.0000 N   0  0  0  0  0  0  0  0  0  0  0  0
    3.0000   -7.7942    0.0000 C   0  0  0  0  0  0  0  0  0  0  0  0
    1.5000   -7.7942    0.0000 O   0  0  0  0  0  0  0  0  0  0  0  0
    3.7500   -6.4952    0.0000 N   0  0  0  0  0  0  0  0  0  0  0  0
    3.0000   -5.1962    0.0000 C   0  0  0  0  0  0  0  0  0  0  0  0
    3.7500   -3.8971    0.0000 C   0  0  0  0  0  0  0  0  0  0  0  0
    3.0000   -2.5981    0.0000 C   0  0  0  0  0  0  0  0  0  0  0  0
    1.5000   -2.5981    0.0000 C   0  0  0  0  0  0  0  0  0  0  0  0
    0.7500   -3.8971    0.0000 C   0  0  0  0  0  0  0  0  0  0  0  0
    1.5000   -5.1962    0.0000 C   0  0  0  0  0  0  0  0  0  0  0  0
    0.7500   -1.2990    0.0000 C   0  0  0  0  0  0  0  0  0  0  0  0
    1.5000    0.0000    0.0000 C   0  0  0  0  0  0  0  0  0  0  0  0
    0.7500    1.2990    0.0000 N   0  0  0  0  0  0  0  0  0  0  0  0
   -0.7500    1.2990    0.0000 C   0  0  0  0  0  0  0  0  0  0  0  0
   -1.5000    0.0000    0.0000 C   0  0  0  0  0  0  0  0  0  0  0  0
   -0.7500   -1.2990    0.0000 C   0  0  0  0  0  0  0  0  0  0  0  0
   -1.7537   -2.4138    0.0000 C   0  0  0  0  0  0  0  0  0  0  0  0
   -1.4418   -3.8810    0.0000 N   0  0  0  0  0  0  0  0  0  0  0  0
   -3.1240   -1.8037    0.0000 N   0  0  0  0  0  0  0  0  0  0  0  0
   -2.9672   -0.3119    0.0000 N   0  0  0  0  0  0  0  0  0  0  0  0
   -4.0819    0.6918    0.0000 C   0  0  0  0  0  0  0  0  0  0  0  0
    3.7500  -11.6913    0.0000 C   0  0  0  0  0  0  0  0  0  0  0  0
  1  2  1  0
  2  3  2  0
  3  4  1  0
  4  5  2  0
  5  6  1  0
  5  7  1  0
  7  8  1  0
  8  9  1  0
  9 10  2  0
  9 11  1  0
 11 12  1  0
 12 13  2  0
 13 14  1  0
 14 15  2  0
 15 16  1  0
 16 17  2  0
 15 18  1  0
 18 19  2  0
 19 20  1  0
 20 21  2  0
 21 22  1  0
 22 23  2  0
 23 24  1  0
 24 25  1  0
 24 26  2  0
 26 27  1  0
 27 28  1  0
  7 29  2  0
 29  2  1  0
 17 12  1  0
 23 18  1  0
 27 22  1  0
M  END
>  <Molecule>  (800) 
CHEMBL402846

>  <Standard Type>  (800) 
Ki

>  <Standard Relation>  (800) 
>

>  <Standard Value>  (800) 
1584.89

>  <Standard Units>  (800) 
nM

>  <pChEMBL Value>  (800) 
nan

>  <Comment>  (800) 
inactive

>  <Compound Key>  (800) 
SID103904342

>  <Assay>  (800) 
CHEMBL1963742

>  <Assay Description>  (800) 
PUBCHEM_BIOASSAY: Navigating the Kinome. (Class of assay: other) Panel member name: JAK3

>  <BAO Format>  (800) 
assay format

>  <Target>  (800) 
CHEMBL2148

>  <Target Pref. Name>  (800) 
Tyrosine-protein kinase JAK3

>  <Target Organism>  (800) 
Homo sapiens

>  <Target Type>  (800) 
SINGLE PROTEIN

>  <Document>  (800) 
CHEMBL1201862

>  <Source>  (800) 
PubChem BioAssays

>  <Max Phase>  (800) 
0

>  <#Ro5 Violations>  (800) 
0

>  <Molecular Weight>  (800) 
390.42

>  <Ligand Efficiency BEI>  (800) 
nan

>  <Ligand Efficiency LE>  (800) 
nan

>  <Ligand Efficiency LLE>  (800) 
nan

>  <Ligand Efficiency SEI>  (800) 
nan

>  <ALogP>  (800) 
4.31

>  <Assay Organism>  (800) 
nan

>  <Assay Tissue ChEMBL ID>  (800) 
nan

>  <Assay Tissue Name>  (800) 
nan

>  <Assay Cell Type>  (800) 
nan

>  <Assay Subcellular Fraction>  (800) 
nan

>  <Organism Tax ID>  (800) 
9606

>  <BAO Format ID>  (800) 
BAO_0000019

>  <Published Type>  (800) 
nan

>  <Published Relation>  (800) 
nan

>  <Published Value>  (800) 
nan

>  <Published Units>  (800) 
nan

>  <Canonical Smiles>  (800) 
Cc1ccc(F)c(NC(=O)Nc2ccc(cc2)c3cncc4c3c(N)nn4C)c1

>  <Data Validity Comment>  (800) 
nan

>  <Document Journal>  (800) 
nan

>  <Document Year>  (800) 
nan

>  <SRC ID>  (800) 
7

>  <UO Units>  (800) 
UO_0000065

>  <Potential Duplicate>  (800) 
False

>  <Class>  (800) 
0

$$$$

     RDKit          2D

 21 22  0  0  0  0  0  0  0  0999 V2000
    3.7500   -1.2990    0.0000 C   0  0  0  0  0  0  0  0  0  0  0  0
    3.0000    0.0000    0.0000 O   0  0  0  0  0  0  0  0  0  0  0  0
    1.5000    0.0000    0.0000 C   0  0  0  0  0  0  0  0  0  0  0  0
    0.7500   -1.2990    0.0000 C   0  0  0  0  0  0  0  0  0  0  0  0
   -0.7500   -1.2990    0.0000 C   0  0  0  0  0  0  0  0  0  0  0  0
   -1.5000    0.0000    0.0000 C   0  0  0  0  0  0  0  0  0  0  0  0
   -3.0000    0.0000    0.0000 C   0  0  0  0  0  0  0  0  0  0  0  0
   -3.7500    1.2990    0.0000 N   0  0  0  0  0  0  0  0  0  0  0  0
   -5.2500    1.2990    0.0000 C   0  0  0  0  0  0  0  0  0  0  0  0
   -6.0000    0.0000    0.0000 O   0  0  0  0  0  0  0  0  0  0  0  0
   -6.0000    2.5981    0.0000 N   0  0  0  0  0  0  0  0  0  0  0  0
   -7.5000    2.5981    0.0000 C   0  0  0  0  0  0  0  0  0  0  0  0
   -8.3817    1.3846    0.0000 N   0  0  0  0  0  0  0  0  0  0  0  0
   -9.8083    1.8481    0.0000 C   0  0  0  0  0  0  0  0  0  0  0  0
   -9.8083    3.3481    0.0000 C   0  0  0  0  0  0  0  0  0  0  0  0
   -8.3817    3.8116    0.0000 S   0  0  0  0  0  0  0  0  0  0  0  0
  -11.0218    4.2298    0.0000 N   0  0  0  0  0  0  0  0  0  0  0  0
  -12.3921    3.6196    0.0000 O   0  0  0  0  0  0  0  0  0  0  0  0
  -10.8650    5.7215    0.0000 O   0  0  0  0  0  0  0  0  0  0  0  0
   -0.7500    1.2990    0.0000 C   0  0  0  0  0  0  0  0  0  0  0  0
    0.7500    1.2990    0.0000 C   0  0  0  0  0  0  0  0  0  0  0  0
  1  2  1  0
  2  3  1  0
  3  4  2  0
  4  5  1  0
  5  6  2  0
  6  7  1  0
  7  8  1  0
  8  9  1  0
  9 10  2  0
  9 11  1  0
 11 12  1  0
 12 13  2  0
 13 14  1  0
 14 15  2  0
 15 16  1  0
 15 17  1  0
 17 18  2  0
 17 19  1  0
  6 20  1  0
 20 21  2  0
 21  3  1  0
 16 12  1  0
M  CHG  2  17   1  19  -1
M  END
>  <Molecule>  (801) 
CHEMBL259850

>  <Standard Type>  (801) 
Ki

>  <Standard Relation>  (801) 
>

>  <Standard Value>  (801) 
1584.89

>  <Standard Units>  (801) 
nM

>  <pChEMBL Value>  (801) 
nan

>  <Comment>  (801) 
inactive

>  <Compound Key>  (801) 
SID103904634

>  <Assay>  (801) 
CHEMBL1963742

>  <Assay Description>  (801) 
PUBCHEM_BIOASSAY: Navigating the Kinome. (Class of assay: other) Panel member name: JAK3

>  <BAO Format>  (801) 
assay format

>  <Target>  (801) 
CHEMBL2148

>  <Target Pref. Name>  (801) 
Tyrosine-protein kinase JAK3

>  <Target Organism>  (801) 
Homo sapiens

>  <Target Type>  (801) 
SINGLE PROTEIN

>  <Document>  (801) 
CHEMBL1201862

>  <Source>  (801) 
PubChem BioAssays

>  <Max Phase>  (801) 
0

>  <#Ro5 Violations>  (801) 
0

>  <Molecular Weight>  (801) 
308.32

>  <Ligand Efficiency BEI>  (801) 
nan

>  <Ligand Efficiency LE>  (801) 
nan

>  <Ligand Efficiency LLE>  (801) 
nan

>  <Ligand Efficiency SEI>  (801) 
nan

>  <ALogP>  (801) 
2.38

>  <Assay Organism>  (801) 
nan

>  <Assay Tissue ChEMBL ID>  (801) 
nan

>  <Assay Tissue Name>  (801) 
nan

>  <Assay Cell Type>  (801) 
nan

>  <Assay Subcellular Fraction>  (801) 
nan

>  <Organism Tax ID>  (801) 
9606

>  <BAO Format ID>  (801) 
BAO_0000019

>  <Published Type>  (801) 
nan

>  <Published Relation>  (801) 
nan

>  <Published Value>  (801) 
nan

>  <Published Units>  (801) 
nan

>  <Canonical Smiles>  (801) 
COc1ccc(CNC(=O)Nc2ncc(s2)[N+](=O)[O-])cc1

>  <Data Validity Comment>  (801) 
nan

>  <Document Journal>  (801) 
nan

>  <Document Year>  (801) 
nan

>  <SRC ID>  (801) 
7

>  <UO Units>  (801) 
UO_0000065

>  <Potential Duplicate>  (801) 
False

>  <Class>  (801) 
0

$$$$

     RDKit          2D

 34 38  0  0  0  0  0  0  0  0999 V2000
   -2.5981   -9.6073    0.0000 C   0  0  0  0  0  0  0  0  0  0  0  0
   -2.5981   -8.1073    0.0000 C   0  0  0  0  0  0  0  0  0  0  0  0
   -3.8971   -7.3573    0.0000 O   0  0  0  0  0  0  0  0  0  0  0  0
   -1.2990   -7.3573    0.0000 N   0  0  0  0  0  0  0  0  0  0  0  0
   -1.2990   -5.8573    0.0000 C   0  0  0  0  0  0  0  0  0  0  0  0
    0.0000   -5.1073    0.0000 C   0  0  0  0  0  0  0  0  0  0  0  0
    1.2990   -5.8573    0.0000 O   0  0  0  0  0  0  0  0  0  0  0  0
    0.0000   -3.6073    0.0000 N   0  0  0  0  0  0  0  0  0  0  0  0
   -1.2135   -2.7256    0.0000 C   0  0  0  0  0  0  0  0  0  0  0  0
   -0.7500   -4.1522    0.0000 C   0  0  0  0  0  0  0  0  0  0  0  0
    0.7500   -4.1522    0.0000 C   0  0  0  0  0  0  0  0  0  0  0  0
    1.2135   -2.7256    0.0000 C   0  0  0  0  0  0  0  0  0  0  0  0
    0.7500   -1.2990    0.0000 C   0  0  0  0  0  0  0  0  0  0  0  0
    1.5000    0.0000    0.0000 C   0  0  0  0  0  0  0  0  0  0  0  0
    0.7500    1.2990    0.0000 C   0  0  0  0  0  0  0  0  0  0  0  0
    1.5000    2.5981    0.0000 N   0  0  0  0  0  0  0  0  0  0  0  0
    3.0000    2.5981    0.0000 C   0  0  0  0  0  0  0  0  0  0  0  0
    3.7500    1.2990    0.0000 N   0  0  0  0  0  0  0  0  0  0  0  0
    5.2500    1.2990    0.0000 C   0  0  0  0  0  0  0  0  0  0  0  0
    6.0000    2.5981    0.0000 C   0  0  0  0  0  0  0  0  0  0  0  0
    5.2500    3.8971    0.0000 C   0  0  0  0  0  0  0  0  0  0  0  0
    6.0000    5.1962    0.0000 N   0  0  0  0  0  0  0  0  0  0  0  0
    5.2500    6.4952    0.0000 C   0  0  0  0  0  0  0  0  0  0  0  0
    5.6382    7.9441    0.0000 C   0  0  0  0  0  0  0  0  0  0  0  0
    4.1893    8.3323    0.0000 C   0  0  0  0  0  0  0  0  0  0  0  0
    3.8011    6.8834    0.0000 C   0  0  0  0  0  0  0  0  0  0  0  0
    3.7500    3.8971    0.0000 N   0  0  0  0  0  0  0  0  0  0  0  0
    7.5000    2.5981    0.0000 C   0  0  0  0  0  0  0  0  0  0  0  0
    9.0000    2.5981    0.0000 F   0  0  0  0  0  0  0  0  0  0  0  0
    7.5000    1.0981    0.0000 F   0  0  0  0  0  0  0  0  0  0  0  0
    7.5000    4.0981    0.0000 F   0  0  0  0  0  0  0  0  0  0  0  0
   -0.7500    1.2990    0.0000 C   0  0  0  0  0  0  0  0  0  0  0  0
   -1.5000    0.0000    0.0000 C   0  0  0  0  0  0  0  0  0  0  0  0
   -0.7500   -1.2990    0.0000 C   0  0  0  0  0  0  0  0  0  0  0  0
  1  2  1  0
  2  3  2  0
  2  4  1  0
  4  5  1  0
  5  6  1  0
  6  7  2  0
  6  8  1  0
  8  9  1  0
  9 10  1  0
 10 11  1  0
 11 12  1  0
 12 13  1  0
 13 14  2  0
 14 15  1  0
 15 16  1  0
 16 17  1  0
 17 18  2  0
 18 19  1  0
 19 20  2  0
 20 21  1  0
 21 22  1  0
 22 23  1  0
 23 24  1  0
 24 25  1  0
 25 26  1  0
 21 27  2  0
 20 28  1  0
 28 29  1  0
 28 30  1  0
 28 31  1  0
 15 32  2  0
 32 33  1  0
 33 34  2  0
 12  8  1  0
 34  9  1  0
 34 13  1  0
 27 17  1  0
 26 23  1  0
M  END
>  <Molecule>  (802) 
CHEMBL1983111

>  <Standard Type>  (802) 
Ki

>  <Standard Relation>  (802) 
=

>  <Standard Value>  (802) 
25.12

>  <Standard Units>  (802) 
nM

>  <pChEMBL Value>  (802) 
7.6

>  <Comment>  (802) 
active

>  <Compound Key>  (802) 
SID103904739

>  <Assay>  (802) 
CHEMBL1963742

>  <Assay Description>  (802) 
PUBCHEM_BIOASSAY: Navigating the Kinome. (Class of assay: other) Panel member name: JAK3

>  <BAO Format>  (802) 
assay format

>  <Target>  (802) 
CHEMBL2148

>  <Target Pref. Name>  (802) 
Tyrosine-protein kinase JAK3

>  <Target Organism>  (802) 
Homo sapiens

>  <Target Type>  (802) 
SINGLE PROTEIN

>  <Document>  (802) 
CHEMBL1201862

>  <Source>  (802) 
PubChem BioAssays

>  <Max Phase>  (802) 
0

>  <#Ro5 Violations>  (802) 
0

>  <Molecular Weight>  (802) 
474.49

>  <Ligand Efficiency BEI>  (802) 
nan

>  <Ligand Efficiency LE>  (802) 
nan

>  <Ligand Efficiency LLE>  (802) 
nan

>  <Ligand Efficiency SEI>  (802) 
nan

>  <ALogP>  (802) 
4.06

>  <Assay Organism>  (802) 
nan

>  <Assay Tissue ChEMBL ID>  (802) 
nan

>  <Assay Tissue Name>  (802) 
nan

>  <Assay Cell Type>  (802) 
nan

>  <Assay Subcellular Fraction>  (802) 
nan

>  <Organism Tax ID>  (802) 
9606

>  <BAO Format ID>  (802) 
BAO_0000019

>  <Published Type>  (802) 
nan

>  <Published Relation>  (802) 
nan

>  <Published Value>  (802) 
nan

>  <Published Units>  (802) 
nan

>  <Canonical Smiles>  (802) 
CC(=O)NCC(=O)N1C2CCC1c3cc(Nc4ncc(c(NC5CCC5)n4)C(F)(F)F)ccc23

>  <Data Validity Comment>  (802) 
nan

>  <Document Journal>  (802) 
nan

>  <Document Year>  (802) 
nan

>  <SRC ID>  (802) 
7

>  <UO Units>  (802) 
UO_0000065

>  <Potential Duplicate>  (802) 
False

>  <Class>  (802) 
1

$$$$

     RDKit          2D

 33 38  0  0  0  0  0  0  0  0999 V2000
   -3.7500   -9.0933    0.0000 C   0  0  0  0  0  0  0  0  0  0  0  0
   -3.0000   -7.7942    0.0000 N   0  0  0  0  0  0  0  0  0  0  0  0
   -3.7500   -6.4952    0.0000 C   0  0  0  0  0  0  0  0  0  0  0  0
   -3.0000   -5.1962    0.0000 C   0  0  0  0  0  0  0  0  0  0  0  0
   -1.5000   -5.1962    0.0000 N   0  0  0  0  0  0  0  0  0  0  0  0
   -0.7500   -6.4952    0.0000 C   0  0  0  0  0  0  0  0  0  0  0  0
   -1.5000   -7.7942    0.0000 C   0  0  0  0  0  0  0  0  0  0  0  0
   -0.7500   -3.8971    0.0000 C   0  0  0  0  0  0  0  0  0  0  0  0
    0.7500   -3.8971    0.0000 N   0  0  0  0  0  0  0  0  0  0  0  0
    1.5000   -2.5981    0.0000 C   0  0  0  0  0  0  0  0  0  0  0  0
    3.0000   -2.5981    0.0000 C   0  0  0  0  0  0  0  0  0  0  0  0
    3.8817   -1.3846    0.0000 C   0  0  0  0  0  0  0  0  0  0  0  0
    5.3083   -1.8481    0.0000 C   0  0  0  0  0  0  0  0  0  0  0  0
    6.5218   -0.9664    0.0000 O   0  0  0  0  0  0  0  0  0  0  0  0
    5.3083   -3.3481    0.0000 N   0  0  0  0  0  0  0  0  0  0  0  0
    3.8817   -3.8116    0.0000 C   0  0  0  0  0  0  0  0  0  0  0  0
    3.4182   -5.2382    0.0000 O   0  0  0  0  0  0  0  0  0  0  0  0
    3.4182    0.0420    0.0000 C   0  0  0  0  0  0  0  0  0  0  0  0
    1.9916    0.5056    0.0000 C   0  0  0  0  0  0  0  0  0  0  0  0
    1.9916    2.0056    0.0000 N   0  0  0  0  0  0  0  0  0  0  0  0
    3.4182    2.4691    0.0000 C   0  0  0  0  0  0  0  0  0  0  0  0
    4.0283    3.8394    0.0000 C   0  0  0  0  0  0  0  0  0  0  0  0
    5.5200    3.9962    0.0000 C   0  0  0  0  0  0  0  0  0  0  0  0
    6.4017    2.7827    0.0000 C   0  0  0  0  0  0  0  0  0  0  0  0
    5.7916    1.4124    0.0000 C   0  0  0  0  0  0  0  0  0  0  0  0
    4.2998    1.2556    0.0000 C   0  0  0  0  0  0  0  0  0  0  0  0
    0.7500   -1.2990    0.0000 C   0  0  0  0  0  0  0  0  0  0  0  0
    1.5000    0.0000    0.0000 C   0  0  0  0  0  0  0  0  0  0  0  0
    0.7500    1.2990    0.0000 C   0  0  0  0  0  0  0  0  0  0  0  0
   -0.7500    1.2990    0.0000 C   0  0  0  0  0  0  0  0  0  0  0  0
   -1.5000    0.0000    0.0000 C   0  0  0  0  0  0  0  0  0  0  0  0
   -0.7500   -1.2990    0.0000 C   0  0  0  0  0  0  0  0  0  0  0  0
   -1.5000   -2.5981    0.0000 N   0  0  0  0  0  0  0  0  0  0  0  0
  1  2  1  0
  2  3  1  0
  3  4  1  0
  4  5  1  0
  5  6  1  0
  6  7  1  0
  5  8  1  0
  8  9  2  0
  9 10  1  0
 10 11  1  0
 11 12  2  0
 12 13  1  0
 13 14  2  0
 13 15  1  0
 15 16  1  0
 16 17  2  0
 12 18  1  0
 18 19  2  0
 19 20  1  0
 20 21  1  0
 21 22  2  0
 22 23  1  0
 23 24  2  0
 24 25  1  0
 25 26  2  0
 10 27  2  0
 27 28  1  0
 28 29  2  0
 29 30  1  0
 30 31  2  0
 31 32  1  0
 32 33  2  0
  7  2  1  0
 33  8  1  0
 16 11  1  0
 26 18  1  0
 26 21  1  0
 32 27  1  0
M  END
>  <Molecule>  (803) 
CHEMBL565612

>  <Standard Type>  (803) 
Ki

>  <Standard Relation>  (803) 
=

>  <Standard Value>  (803) 
630.96

>  <Standard Units>  (803) 
nM

>  <pChEMBL Value>  (803) 
6.2

>  <Comment>  (803) 
active

>  <Compound Key>  (803) 
SID103905056

>  <Assay>  (803) 
CHEMBL1963742

>  <Assay Description>  (803) 
PUBCHEM_BIOASSAY: Navigating the Kinome. (Class of assay: other) Panel member name: JAK3

>  <BAO Format>  (803) 
assay format

>  <Target>  (803) 
CHEMBL2148

>  <Target Pref. Name>  (803) 
Tyrosine-protein kinase JAK3

>  <Target Organism>  (803) 
Homo sapiens

>  <Target Type>  (803) 
SINGLE PROTEIN

>  <Document>  (803) 
CHEMBL1201862

>  <Source>  (803) 
PubChem BioAssays

>  <Max Phase>  (803) 
2

>  <#Ro5 Violations>  (803) 
0

>  <Molecular Weight>  (803) 
438.49

>  <Ligand Efficiency BEI>  (803) 
nan

>  <Ligand Efficiency LE>  (803) 
nan

>  <Ligand Efficiency LLE>  (803) 
nan

>  <Ligand Efficiency SEI>  (803) 
nan

>  <ALogP>  (803) 
2.43

>  <Assay Organism>  (803) 
nan

>  <Assay Tissue ChEMBL ID>  (803) 
nan

>  <Assay Tissue Name>  (803) 
nan

>  <Assay Cell Type>  (803) 
nan

>  <Assay Subcellular Fraction>  (803) 
nan

>  <Organism Tax ID>  (803) 
9606

>  <BAO Format ID>  (803) 
BAO_0000019

>  <Published Type>  (803) 
nan

>  <Published Relation>  (803) 
nan

>  <Published Value>  (803) 
nan

>  <Published Units>  (803) 
nan

>  <Canonical Smiles>  (803) 
CN1CCN(CC1)c2nc(C3=C(C(=O)NC3=O)c4c[nH]c5ccccc45)c6ccccc6n2

>  <Data Validity Comment>  (803) 
nan

>  <Document Journal>  (803) 
nan

>  <Document Year>  (803) 
nan

>  <SRC ID>  (803) 
7

>  <UO Units>  (803) 
UO_0000065

>  <Potential Duplicate>  (803) 
False

>  <Class>  (803) 
1

$$$$

     RDKit          2D

 31 34  0  0  0  0  0  0  0  0999 V2000
    0.7500   -3.8971    0.0000 C   0  0  0  0  0  0  0  0  0  0  0  0
    1.5000   -2.5981    0.0000 N   0  0  0  0  0  0  0  0  0  0  0  0
    0.7500   -1.2990    0.0000 C   0  0  0  0  0  0  0  0  0  0  0  0
    1.5000    0.0000    0.0000 C   0  0  0  0  0  0  0  0  0  0  0  0
    0.7500    1.2990    0.0000 C   0  0  0  0  0  0  0  0  0  0  0  0
   -0.7500    1.2990    0.0000 C   0  0  0  0  0  0  0  0  0  0  0  0
   -1.7537    2.4138    0.0000 C   0  0  0  0  0  0  0  0  0  0  0  0
   -1.4418    3.8810    0.0000 C   0  0  0  0  0  0  0  0  0  0  0  0
   -3.1240    1.8037    0.0000 N   0  0  0  0  0  0  0  0  0  0  0  0
   -4.4231    2.5537    0.0000 C   0  0  0  0  0  0  0  0  0  0  0  0
   -2.9672    0.3119    0.0000 N   0  0  0  0  0  0  0  0  0  0  0  0
   -1.5000    0.0000    0.0000 C   0  0  0  0  0  0  0  0  0  0  0  0
   -0.7500   -1.2990    0.0000 C   0  0  0  0  0  0  0  0  0  0  0  0
    3.0000   -2.5981    0.0000 C   0  0  0  0  0  0  0  0  0  0  0  0
    3.7500   -3.8971    0.0000 C   0  0  0  0  0  0  0  0  0  0  0  0
    5.2500   -3.8971    0.0000 C   0  0  0  0  0  0  0  0  0  0  0  0
    6.0000   -2.5981    0.0000 N   0  0  0  0  0  0  0  0  0  0  0  0
    5.2500   -1.2990    0.0000 C   0  0  0  0  0  0  0  0  0  0  0  0
    6.0000   -0.0000    0.0000 N   0  0  0  0  0  0  0  0  0  0  0  0
    7.5000   -0.0000    0.0000 C   0  0  0  0  0  0  0  0  0  0  0  0
    8.2500   -1.2990    0.0000 C   0  0  0  0  0  0  0  0  0  0  0  0
    9.7500   -1.2990    0.0000 C   0  0  0  0  0  0  0  0  0  0  0  0
   10.5000   -0.0000    0.0000 C   0  0  0  0  0  0  0  0  0  0  0  0
   12.0000    0.0000    0.0000 C   0  0  0  0  0  0  0  0  0  0  0  0
    9.7500    1.2990    0.0000 C   0  0  0  0  0  0  0  0  0  0  0  0
    8.2500    1.2990    0.0000 C   0  0  0  0  0  0  0  0  0  0  0  0
   10.5000    2.5981    0.0000 S   0  0  0  0  0  0  0  0  0  0  0  0
    9.2010    3.3481    0.0000 O   0  0  0  0  0  0  0  0  0  0  0  0
   11.7990    1.8481    0.0000 O   0  0  0  0  0  0  0  0  0  0  0  0
   11.2500    3.8971    0.0000 N   0  0  0  0  0  0  0  0  0  0  0  0
    3.7500   -1.2990    0.0000 N   0  0  0  0  0  0  0  0  0  0  0  0
  1  2  1  0
  2  3  1  0
  3  4  1  0
  4  5  2  0
  5  6  1  0
  6  7  2  0
  7  8  1  0
  7  9  1  0
  9 10  1  0
  9 11  1  0
 11 12  2  0
 12 13  1  0
  2 14  1  0
 14 15  2  0
 15 16  1  0
 16 17  2  0
 17 18  1  0
 18 19  1  0
 19 20  1  0
 20 21  2  0
 21 22  1  0
 22 23  2  0
 23 24  1  0
 23 25  1  0
 25 26  2  0
 25 27  1  0
 27 28  2  0
 27 29  2  0
 27 30  1  0
 18 31  2  0
 13  3  2  0
 12  6  1  0
 31 14  1  0
 26 20  1  0
M  END
>  <Molecule>  (804) 
CHEMBL477772

>  <Standard Type>  (804) 
Ki

>  <Standard Relation>  (804) 
>

>  <Standard Value>  (804) 
5011.87

>  <Standard Units>  (804) 
nM

>  <pChEMBL Value>  (804) 
nan

>  <Comment>  (804) 
inactive

>  <Compound Key>  (804) 
SID103905642

>  <Assay>  (804) 
CHEMBL1963742

>  <Assay Description>  (804) 
PUBCHEM_BIOASSAY: Navigating the Kinome. (Class of assay: other) Panel member name: JAK3

>  <BAO Format>  (804) 
assay format

>  <Target>  (804) 
CHEMBL2148

>  <Target Pref. Name>  (804) 
Tyrosine-protein kinase JAK3

>  <Target Organism>  (804) 
Homo sapiens

>  <Target Type>  (804) 
SINGLE PROTEIN

>  <Document>  (804) 
CHEMBL1201862

>  <Source>  (804) 
PubChem BioAssays

>  <Max Phase>  (804) 
4

>  <#Ro5 Violations>  (804) 
0

>  <Molecular Weight>  (804) 
437.53

>  <Ligand Efficiency BEI>  (804) 
nan

>  <Ligand Efficiency LE>  (804) 
nan

>  <Ligand Efficiency LLE>  (804) 
nan

>  <Ligand Efficiency SEI>  (804) 
nan

>  <ALogP>  (804) 
3.14

>  <Assay Organism>  (804) 
nan

>  <Assay Tissue ChEMBL ID>  (804) 
nan

>  <Assay Tissue Name>  (804) 
nan

>  <Assay Cell Type>  (804) 
nan

>  <Assay Subcellular Fraction>  (804) 
nan

>  <Organism Tax ID>  (804) 
9606

>  <BAO Format ID>  (804) 
BAO_0000019

>  <Published Type>  (804) 
nan

>  <Published Relation>  (804) 
nan

>  <Published Value>  (804) 
nan

>  <Published Units>  (804) 
nan

>  <Canonical Smiles>  (804) 
CN(c1ccc2c(C)n(C)nc2c1)c3ccnc(Nc4ccc(C)c(c4)S(=O)(=O)N)n3

>  <Data Validity Comment>  (804) 
nan

>  <Document Journal>  (804) 
nan

>  <Document Year>  (804) 
nan

>  <SRC ID>  (804) 
7

>  <UO Units>  (804) 
UO_0000065

>  <Potential Duplicate>  (804) 
False

>  <Class>  (804) 
0

$$$$

     RDKit          2D

 32 34  0  0  0  0  0  0  0  0999 V2000
    5.2500   -1.2990    0.0000 C   0  0  0  0  0  0  0  0  0  0  0  0
    3.7500   -1.2990    0.0000 N   0  0  0  0  0  0  0  0  0  0  0  0
    3.0000    0.0000    0.0000 C   0  0  0  0  0  0  0  0  0  0  0  0
    3.7500    1.2990    0.0000 O   0  0  0  0  0  0  0  0  0  0  0  0
    1.5000    0.0000    0.0000 C   0  0  0  0  0  0  0  0  0  0  0  0
    0.7500   -1.2990    0.0000 C   0  0  0  0  0  0  0  0  0  0  0  0
   -0.7500   -1.2990    0.0000 C   0  0  0  0  0  0  0  0  0  0  0  0
   -1.5000   -2.5981    0.0000 O   0  0  0  0  0  0  0  0  0  0  0  0
   -3.0000   -2.5981    0.0000 C   0  0  0  0  0  0  0  0  0  0  0  0
   -3.7500   -1.2990    0.0000 C   0  0  0  0  0  0  0  0  0  0  0  0
   -5.2500   -1.2990    0.0000 C   0  0  0  0  0  0  0  0  0  0  0  0
   -6.0000   -2.5981    0.0000 C   0  0  0  0  0  0  0  0  0  0  0  0
   -7.5000   -2.5981    0.0000 N   0  0  0  0  0  0  0  0  0  0  0  0
   -8.2500   -1.2990    0.0000 C   0  0  0  0  0  0  0  0  0  0  0  0
   -7.5000    0.0000    0.0000 O   0  0  0  0  0  0  0  0  0  0  0  0
   -9.7500   -1.2990    0.0000 N   0  0  0  0  0  0  0  0  0  0  0  0
  -10.5000    0.0000    0.0000 C   0  0  0  0  0  0  0  0  0  0  0  0
   -9.7500    1.2990    0.0000 C   0  0  0  0  0  0  0  0  0  0  0  0
  -10.5000    2.5981    0.0000 C   0  0  0  0  0  0  0  0  0  0  0  0
  -12.0000    2.5981    0.0000 C   0  0  0  0  0  0  0  0  0  0  0  0
  -12.7500    3.8971    0.0000 Cl  0  0  0  0  0  0  0  0  0  0  0  0
  -12.7500    1.2990    0.0000 C   0  0  0  0  0  0  0  0  0  0  0  0
  -12.0000    0.0000    0.0000 C   0  0  0  0  0  0  0  0  0  0  0  0
  -14.2500    1.2990    0.0000 C   0  0  0  0  0  0  0  0  0  0  0  0
  -15.7500    1.2990    0.0000 F   0  0  0  0  0  0  0  0  0  0  0  0
  -14.2500   -0.2010    0.0000 F   0  0  0  0  0  0  0  0  0  0  0  0
  -14.2500    2.7990    0.0000 F   0  0  0  0  0  0  0  0  0  0  0  0
   -5.2500   -3.8971    0.0000 C   0  0  0  0  0  0  0  0  0  0  0  0
   -3.7500   -3.8971    0.0000 C   0  0  0  0  0  0  0  0  0  0  0  0
   -1.5000    0.0000    0.0000 C   0  0  0  0  0  0  0  0  0  0  0  0
   -0.7500    1.2990    0.0000 C   0  0  0  0  0  0  0  0  0  0  0  0
    0.7500    1.2990    0.0000 N   0  0  0  0  0  0  0  0  0  0  0  0
  1  2  1  0
  2  3  1  0
  3  4  2  0
  3  5  1  0
  5  6  2  0
  6  7  1  0
  7  8  1  0
  8  9  1  0
  9 10  2  0
 10 11  1  0
 11 12  2  0
 12 13  1  0
 13 14  1  0
 14 15  2  0
 14 16  1  0
 16 17  1  0
 17 18  2  0
 18 19  1  0
 19 20  2  0
 20 21  1  0
 20 22  1  0
 22 23  2  0
 22 24  1  0
 24 25  1  0
 24 26  1  0
 24 27  1  0
 12 28  1  0
 28 29  2  0
  7 30  2  0
 30 31  1  0
 31 32  2  0
 32  5  1  0
 29  9  1  0
 23 17  1  0
M  END
>  <Molecule>  (805) 
CHEMBL1336

>  <Standard Type>  (805) 
Ki

>  <Standard Relation>  (805) 
>

>  <Standard Value>  (805) 
5011.87

>  <Standard Units>  (805) 
nM

>  <pChEMBL Value>  (805) 
nan

>  <Comment>  (805) 
inactive

>  <Compound Key>  (805) 
Sorafenib

>  <Assay>  (805) 
CHEMBL1963742

>  <Assay Description>  (805) 
PUBCHEM_BIOASSAY: Navigating the Kinome. (Class of assay: other) Panel member name: JAK3

>  <BAO Format>  (805) 
assay format

>  <Target>  (805) 
CHEMBL2148

>  <Target Pref. Name>  (805) 
Tyrosine-protein kinase JAK3

>  <Target Organism>  (805) 
Homo sapiens

>  <Target Type>  (805) 
SINGLE PROTEIN

>  <Document>  (805) 
CHEMBL1201862

>  <Source>  (805) 
PubChem BioAssays

>  <Max Phase>  (805) 
4

>  <#Ro5 Violations>  (805) 
1

>  <Molecular Weight>  (805) 
464.83

>  <Ligand Efficiency BEI>  (805) 
nan

>  <Ligand Efficiency LE>  (805) 
nan

>  <Ligand Efficiency LLE>  (805) 
nan

>  <Ligand Efficiency SEI>  (805) 
nan

>  <ALogP>  (805) 
5.55

>  <Assay Organism>  (805) 
nan

>  <Assay Tissue ChEMBL ID>  (805) 
nan

>  <Assay Tissue Name>  (805) 
nan

>  <Assay Cell Type>  (805) 
nan

>  <Assay Subcellular Fraction>  (805) 
nan

>  <Organism Tax ID>  (805) 
9606

>  <BAO Format ID>  (805) 
BAO_0000019

>  <Published Type>  (805) 
nan

>  <Published Relation>  (805) 
nan

>  <Published Value>  (805) 
nan

>  <Published Units>  (805) 
nan

>  <Canonical Smiles>  (805) 
CNC(=O)c1cc(Oc2ccc(NC(=O)Nc3ccc(Cl)c(c3)C(F)(F)F)cc2)ccn1

>  <Data Validity Comment>  (805) 
nan

>  <Document Journal>  (805) 
nan

>  <Document Year>  (805) 
nan

>  <SRC ID>  (805) 
7

>  <UO Units>  (805) 
UO_0000065

>  <Potential Duplicate>  (805) 
False

>  <Class>  (805) 
0

$$$$

     RDKit          2D

 38 42  0  0  0  0  0  0  0  0999 V2000
   11.0517    8.7911    0.0000 C   0  0  0  0  0  0  0  0  0  0  0  0
   10.0480    9.9058    0.0000 O   0  0  0  0  0  0  0  0  0  0  0  0
    8.5808    9.5939    0.0000 C   0  0  0  0  0  0  0  0  0  0  0  0
    8.1173    8.1673    0.0000 C   0  0  0  0  0  0  0  0  0  0  0  0
    6.6501    7.8555    0.0000 C   0  0  0  0  0  0  0  0  0  0  0  0
    5.6464    8.9702    0.0000 C   0  0  0  0  0  0  0  0  0  0  0  0
    4.1791    8.6583    0.0000 N   0  0  0  0  0  0  0  0  0  0  0  0
    3.7156    7.2317    0.0000 C   0  0  0  0  0  0  0  0  0  0  0  0
    4.7193    6.1170    0.0000 O   0  0  0  0  0  0  0  0  0  0  0  0
    2.2484    6.9199    0.0000 N   0  0  0  0  0  0  0  0  0  0  0  0
    1.7849    5.4933    0.0000 C   0  0  0  0  0  0  0  0  0  0  0  0
    0.3177    5.1814    0.0000 C   0  0  0  0  0  0  0  0  0  0  0  0
   -0.1459    3.7548    0.0000 C   0  0  0  0  0  0  0  0  0  0  0  0
    0.8578    2.6401    0.0000 C   0  0  0  0  0  0  0  0  0  0  0  0
    2.3250    2.9520    0.0000 C   0  0  0  0  0  0  0  0  0  0  0  0
    2.7886    4.3786    0.0000 C   0  0  0  0  0  0  0  0  0  0  0  0
    0.3943    1.2135    0.0000 C   0  0  0  0  0  0  0  0  0  0  0  0
    1.2760    0.0000    0.0000 C   0  0  0  0  0  0  0  0  0  0  0  0
    0.3943   -1.2135    0.0000 S   0  0  0  0  0  0  0  0  0  0  0  0
   -1.0323   -0.7500    0.0000 C   0  0  0  0  0  0  0  0  0  0  0  0
   -2.3313   -1.5000    0.0000 C   0  0  0  0  0  0  0  0  0  0  0  0
   -3.6304   -0.7500    0.0000 C   0  0  0  0  0  0  0  0  0  0  0  0
   -3.6304    0.7500    0.0000 N   0  0  0  0  0  0  0  0  0  0  0  0
   -2.3313    1.5000    0.0000 C   0  0  0  0  0  0  0  0  0  0  0  0
   -2.3313    3.0000    0.0000 N   0  0  0  0  0  0  0  0  0  0  0  0
   -1.0323    0.7500    0.0000 C   0  0  0  0  0  0  0  0  0  0  0  0
   -2.3313   -3.0000    0.0000 C   0  0  0  0  0  0  0  0  0  0  0  0
   -1.1178   -3.8817    0.0000 C   0  0  0  0  0  0  0  0  0  0  0  0
   -1.5813   -5.3083    0.0000 N   0  0  0  0  0  0  0  0  0  0  0  0
   -3.0813   -5.3083    0.0000 N   0  0  0  0  0  0  0  0  0  0  0  0
   -3.9630   -6.5218    0.0000 C   0  0  0  0  0  0  0  0  0  0  0  0
   -5.4548   -6.3650    0.0000 C   0  0  0  0  0  0  0  0  0  0  0  0
   -5.2980   -4.8732    0.0000 C   0  0  0  0  0  0  0  0  0  0  0  0
   -5.6116   -7.8568    0.0000 C   0  0  0  0  0  0  0  0  0  0  0  0
   -6.9466   -6.2082    0.0000 O   0  0  0  0  0  0  0  0  0  0  0  0
   -3.5449   -3.8817    0.0000 C   0  0  0  0  0  0  0  0  0  0  0  0
    6.1099   10.3968    0.0000 C   0  0  0  0  0  0  0  0  0  0  0  0
    7.5771   10.7086    0.0000 C   0  0  0  0  0  0  0  0  0  0  0  0
  1  2  1  0
  2  3  1  0
  3  4  2  0
  4  5  1  0
  5  6  2  0
  6  7  1  0
  7  8  1  0
  8  9  2  0
  8 10  1  0
 10 11  1  0
 11 12  2  0
 12 13  1  0
 13 14  2  0
 14 15  1  0
 15 16  2  0
 14 17  1  0
 17 18  2  0
 18 19  1  0
 19 20  1  0
 20 21  2  0
 21 22  1  0
 22 23  2  0
 23 24  1  0
 24 25  1  0
 24 26  2  0
 21 27  1  0
 27 28  1  0
 28 29  2  0
 29 30  1  0
 30 31  1  0
 31 32  1  0
 32 33  1  0
 32 34  1  0
 32 35  1  0
 30 36  1  0
  6 37  1  0
 37 38  2  0
 38  3  1  0
 16 11  1  0
 26 17  1  0
 26 20  1  0
 36 27  2  0
M  END
>  <Molecule>  (806) 
CHEMBL2004290

>  <Standard Type>  (806) 
Ki

>  <Standard Relation>  (806) 
>

>  <Standard Value>  (806) 
5011.87

>  <Standard Units>  (806) 
nM

>  <pChEMBL Value>  (806) 
nan

>  <Comment>  (806) 
inactive

>  <Compound Key>  (806) 
SID103904291

>  <Assay>  (806) 
CHEMBL1963742

>  <Assay Description>  (806) 
PUBCHEM_BIOASSAY: Navigating the Kinome. (Class of assay: other) Panel member name: JAK3

>  <BAO Format>  (806) 
assay format

>  <Target>  (806) 
CHEMBL2148

>  <Target Pref. Name>  (806) 
Tyrosine-protein kinase JAK3

>  <Target Organism>  (806) 
Homo sapiens

>  <Target Type>  (806) 
SINGLE PROTEIN

>  <Document>  (806) 
CHEMBL1201862

>  <Source>  (806) 
PubChem BioAssays

>  <Max Phase>  (806) 
0

>  <#Ro5 Violations>  (806) 
2

>  <Molecular Weight>  (806) 
528.64

>  <Ligand Efficiency BEI>  (806) 
nan

>  <Ligand Efficiency LE>  (806) 
nan

>  <Ligand Efficiency LLE>  (806) 
nan

>  <Ligand Efficiency SEI>  (806) 
nan

>  <ALogP>  (806) 
5.83

>  <Assay Organism>  (806) 
nan

>  <Assay Tissue ChEMBL ID>  (806) 
nan

>  <Assay Tissue Name>  (806) 
nan

>  <Assay Cell Type>  (806) 
nan

>  <Assay Subcellular Fraction>  (806) 
nan

>  <Organism Tax ID>  (806) 
9606

>  <BAO Format ID>  (806) 
BAO_0000019

>  <Published Type>  (806) 
nan

>  <Published Relation>  (806) 
nan

>  <Published Value>  (806) 
nan

>  <Published Units>  (806) 
nan

>  <Canonical Smiles>  (806) 
COc1ccc(NC(=O)Nc2ccc(cc2)c3csc4c(cnc(N)c34)c5cnn(CC(C)(C)O)c5)cc1

>  <Data Validity Comment>  (806) 
nan

>  <Document Journal>  (806) 
nan

>  <Document Year>  (806) 
nan

>  <SRC ID>  (806) 
7

>  <UO Units>  (806) 
UO_0000065

>  <Potential Duplicate>  (806) 
False

>  <Class>  (806) 
0

$$$$

     RDKit          2D

 25 28  0  0  0  0  0  0  0  0999 V2000
    3.0000    0.0000    0.0000 N   0  0  0  0  0  0  0  0  0  0  0  0
    1.5000    0.0000    0.0000 C   0  0  0  0  0  0  0  0  0  0  0  0
    0.7500   -1.2990    0.0000 N   0  0  0  0  0  0  0  0  0  0  0  0
   -0.7500   -1.2990    0.0000 C   0  0  0  0  0  0  0  0  0  0  0  0
   -1.5000    0.0000    0.0000 C   0  0  0  0  0  0  0  0  0  0  0  0
   -0.7500    1.2990    0.0000 C   0  0  0  0  0  0  0  0  0  0  0  0
    0.7500    1.2990    0.0000 N   0  0  0  0  0  0  0  0  0  0  0  0
   -1.5000    2.5981    0.0000 C   0  0  0  0  0  0  0  0  0  0  0  0
   -2.9918    2.7549    0.0000 C   0  0  0  0  0  0  0  0  0  0  0  0
   -3.3037    4.2221    0.0000 N   0  0  0  0  0  0  0  0  0  0  0  0
   -2.0046    4.9721    0.0000 C   0  0  0  0  0  0  0  0  0  0  0  0
   -0.8899    3.9684    0.0000 N   0  0  0  0  0  0  0  0  0  0  0  0
    0.5773    4.2803    0.0000 C   0  0  0  0  0  0  0  0  0  0  0  0
    1.5810    3.1655    0.0000 C   0  0  0  0  0  0  0  0  0  0  0  0
    3.0482    3.4774    0.0000 C   0  0  0  0  0  0  0  0  0  0  0  0
    3.5118    4.9040    0.0000 N   0  0  0  0  0  0  0  0  0  0  0  0
    2.5081    6.0187    0.0000 C   0  0  0  0  0  0  0  0  0  0  0  0
    1.0409    5.7068    0.0000 C   0  0  0  0  0  0  0  0  0  0  0  0
   -3.9955    1.6402    0.0000 C   0  0  0  0  0  0  0  0  0  0  0  0
   -5.4627    1.9520    0.0000 C   0  0  0  0  0  0  0  0  0  0  0  0
   -6.4664    0.8373    0.0000 C   0  0  0  0  0  0  0  0  0  0  0  0
   -6.0029   -0.5893    0.0000 C   0  0  0  0  0  0  0  0  0  0  0  0
   -7.0066   -1.7040    0.0000 F   0  0  0  0  0  0  0  0  0  0  0  0
   -4.5356   -0.9012    0.0000 C   0  0  0  0  0  0  0  0  0  0  0  0
   -3.5320    0.2136    0.0000 C   0  0  0  0  0  0  0  0  0  0  0  0
  1  2  1  0
  2  3  2  0
  3  4  1  0
  4  5  2  0
  5  6  1  0
  6  7  2  0
  6  8  1  0
  8  9  2  0
  9 10  1  0
 10 11  2  0
 11 12  1  0
 12 13  1  0
 13 14  1  0
 14 15  1  0
 15 16  1  0
 16 17  1  0
 17 18  1  0
  9 19  1  0
 19 20  2  0
 20 21  1  0
 21 22  2  0
 22 23  1  0
 22 24  1  0
 24 25  2  0
  7  2  1  0
 12  8  1  0
 18 13  1  0
 25 19  1  0
M  END
>  <Molecule>  (807) 
CHEMBL274064

>  <Standard Type>  (807) 
Ki

>  <Standard Relation>  (807) 
>

>  <Standard Value>  (807) 
1584.89

>  <Standard Units>  (807) 
nM

>  <pChEMBL Value>  (807) 
nan

>  <Comment>  (807) 
inactive

>  <Compound Key>  (807) 
SID103905253

>  <Assay>  (807) 
CHEMBL1963742

>  <Assay Description>  (807) 
PUBCHEM_BIOASSAY: Navigating the Kinome. (Class of assay: other) Panel member name: JAK3

>  <BAO Format>  (807) 
assay format

>  <Target>  (807) 
CHEMBL2148

>  <Target Pref. Name>  (807) 
Tyrosine-protein kinase JAK3

>  <Target Organism>  (807) 
Homo sapiens

>  <Target Type>  (807) 
SINGLE PROTEIN

>  <Document>  (807) 
CHEMBL1201862

>  <Source>  (807) 
PubChem BioAssays

>  <Max Phase>  (807) 
0

>  <#Ro5 Violations>  (807) 
0

>  <Molecular Weight>  (807) 
338.39

>  <Ligand Efficiency BEI>  (807) 
nan

>  <Ligand Efficiency LE>  (807) 
nan

>  <Ligand Efficiency LLE>  (807) 
nan

>  <Ligand Efficiency SEI>  (807) 
nan

>  <ALogP>  (807) 
2.65

>  <Assay Organism>  (807) 
nan

>  <Assay Tissue ChEMBL ID>  (807) 
nan

>  <Assay Tissue Name>  (807) 
nan

>  <Assay Cell Type>  (807) 
nan

>  <Assay Subcellular Fraction>  (807) 
nan

>  <Organism Tax ID>  (807) 
9606

>  <BAO Format ID>  (807) 
BAO_0000019

>  <Published Type>  (807) 
nan

>  <Published Relation>  (807) 
nan

>  <Published Value>  (807) 
nan

>  <Published Units>  (807) 
nan

>  <Canonical Smiles>  (807) 
Nc1nccc(n1)c2c(ncn2C3CCNCC3)c4ccc(F)cc4

>  <Data Validity Comment>  (807) 
nan

>  <Document Journal>  (807) 
nan

>  <Document Year>  (807) 
nan

>  <SRC ID>  (807) 
7

>  <UO Units>  (807) 
UO_0000065

>  <Potential Duplicate>  (807) 
False

>  <Class>  (807) 
0

$$$$

     RDKit          2D

 33 37  0  0  0  0  0  0  0  0999 V2000
   -0.6996   -6.5218    0.0000 C   0  0  0  0  0  0  0  0  0  0  0  0
   -1.5813   -5.3083    0.0000 N   0  0  0  0  0  0  0  0  0  0  0  0
   -1.1178   -3.8817    0.0000 C   0  0  0  0  0  0  0  0  0  0  0  0
   -2.3313   -3.0000    0.0000 C   0  0  0  0  0  0  0  0  0  0  0  0
   -3.5449   -3.8817    0.0000 C   0  0  0  0  0  0  0  0  0  0  0  0
   -3.0813   -5.3083    0.0000 N   0  0  0  0  0  0  0  0  0  0  0  0
   -2.3313   -1.5000    0.0000 C   0  0  0  0  0  0  0  0  0  0  0  0
   -3.6304   -0.7500    0.0000 C   0  0  0  0  0  0  0  0  0  0  0  0
   -3.6304    0.7500    0.0000 N   0  0  0  0  0  0  0  0  0  0  0  0
   -2.3313    1.5000    0.0000 C   0  0  0  0  0  0  0  0  0  0  0  0
   -2.3313    3.0000    0.0000 N   0  0  0  0  0  0  0  0  0  0  0  0
   -1.0323    0.7500    0.0000 C   0  0  0  0  0  0  0  0  0  0  0  0
    0.3943    1.2135    0.0000 C   0  0  0  0  0  0  0  0  0  0  0  0
    1.2760    0.0000    0.0000 C   0  0  0  0  0  0  0  0  0  0  0  0
    0.3943   -1.2135    0.0000 S   0  0  0  0  0  0  0  0  0  0  0  0
   -1.0323   -0.7500    0.0000 C   0  0  0  0  0  0  0  0  0  0  0  0
    0.8578    2.6401    0.0000 C   0  0  0  0  0  0  0  0  0  0  0  0
    2.3250    2.9520    0.0000 C   0  0  0  0  0  0  0  0  0  0  0  0
    2.7886    4.3786    0.0000 C   0  0  0  0  0  0  0  0  0  0  0  0
    1.7849    5.4933    0.0000 C   0  0  0  0  0  0  0  0  0  0  0  0
    2.2484    6.9199    0.0000 N   0  0  0  0  0  0  0  0  0  0  0  0
    3.7156    7.2317    0.0000 C   0  0  0  0  0  0  0  0  0  0  0  0
    4.7193    6.1170    0.0000 O   0  0  0  0  0  0  0  0  0  0  0  0
    4.1791    8.6583    0.0000 N   0  0  0  0  0  0  0  0  0  0  0  0
    5.6464    8.9702    0.0000 C   0  0  0  0  0  0  0  0  0  0  0  0
    6.6501    7.8555    0.0000 C   0  0  0  0  0  0  0  0  0  0  0  0
    8.1173    8.1673    0.0000 C   0  0  0  0  0  0  0  0  0  0  0  0
    8.5808    9.5939    0.0000 C   0  0  0  0  0  0  0  0  0  0  0  0
    7.5771   10.7086    0.0000 C   0  0  0  0  0  0  0  0  0  0  0  0
    8.0406   12.1352    0.0000 F   0  0  0  0  0  0  0  0  0  0  0  0
    6.1099   10.3968    0.0000 C   0  0  0  0  0  0  0  0  0  0  0  0
    0.3177    5.1814    0.0000 C   0  0  0  0  0  0  0  0  0  0  0  0
   -0.1459    3.7548    0.0000 C   0  0  0  0  0  0  0  0  0  0  0  0
  1  2  1  0
  2  3  1  0
  3  4  2  0
  4  5  1  0
  5  6  2  0
  4  7  1  0
  7  8  2  0
  8  9  1  0
  9 10  2  0
 10 11  1  0
 10 12  1  0
 12 13  1  0
 13 14  2  0
 14 15  1  0
 15 16  1  0
 13 17  1  0
 17 18  2  0
 18 19  1  0
 19 20  2  0
 20 21  1  0
 21 22  1  0
 22 23  2  0
 22 24  1  0
 24 25  1  0
 25 26  2  0
 26 27  1  0
 27 28  2  0
 28 29  1  0
 29 30  1  0
 29 31  2  0
 20 32  1  0
 32 33  2  0
  6  2  1  0
 16  7  1  0
 16 12  2  0
 33 17  1  0
 31 25  1  0
M  END
>  <Molecule>  (808) 
CHEMBL1970317

>  <Standard Type>  (808) 
Ki

>  <Standard Relation>  (808) 
>

>  <Standard Value>  (808) 
5011.87

>  <Standard Units>  (808) 
nM

>  <pChEMBL Value>  (808) 
nan

>  <Comment>  (808) 
inactive

>  <Compound Key>  (808) 
SID103904314

>  <Assay>  (808) 
CHEMBL1963742

>  <Assay Description>  (808) 
PUBCHEM_BIOASSAY: Navigating the Kinome. (Class of assay: other) Panel member name: JAK3

>  <BAO Format>  (808) 
assay format

>  <Target>  (808) 
CHEMBL2148

>  <Target Pref. Name>  (808) 
Tyrosine-protein kinase JAK3

>  <Target Organism>  (808) 
Homo sapiens

>  <Target Type>  (808) 
SINGLE PROTEIN

>  <Document>  (808) 
CHEMBL1201862

>  <Source>  (808) 
PubChem BioAssays

>  <Max Phase>  (808) 
0

>  <#Ro5 Violations>  (808) 
1

>  <Molecular Weight>  (808) 
458.52

>  <Ligand Efficiency BEI>  (808) 
nan

>  <Ligand Efficiency LE>  (808) 
nan

>  <Ligand Efficiency LLE>  (808) 
nan

>  <Ligand Efficiency SEI>  (808) 
nan

>  <ALogP>  (808) 
5.73

>  <Assay Organism>  (808) 
nan

>  <Assay Tissue ChEMBL ID>  (808) 
nan

>  <Assay Tissue Name>  (808) 
nan

>  <Assay Cell Type>  (808) 
nan

>  <Assay Subcellular Fraction>  (808) 
nan

>  <Organism Tax ID>  (808) 
9606

>  <BAO Format ID>  (808) 
BAO_0000019

>  <Published Type>  (808) 
nan

>  <Published Relation>  (808) 
nan

>  <Published Value>  (808) 
nan

>  <Published Units>  (808) 
nan

>  <Canonical Smiles>  (808) 
Cn1cc(cn1)c2cnc(N)c3c(csc23)c4ccc(NC(=O)Nc5cccc(F)c5)cc4

>  <Data Validity Comment>  (808) 
nan

>  <Document Journal>  (808) 
nan

>  <Document Year>  (808) 
nan

>  <SRC ID>  (808) 
7

>  <UO Units>  (808) 
UO_0000065

>  <Potential Duplicate>  (808) 
False

>  <Class>  (808) 
0

$$$$

     RDKit          2D

 37 41  0  0  0  0  0  0  0  0999 V2000
    8.0406   12.1352    0.0000 C   0  0  0  0  0  0  0  0  0  0  0  0
    7.5771   10.7086    0.0000 C   0  0  0  0  0  0  0  0  0  0  0  0
    8.5808    9.5939    0.0000 C   0  0  0  0  0  0  0  0  0  0  0  0
    8.1173    8.1673    0.0000 C   0  0  0  0  0  0  0  0  0  0  0  0
    6.6501    7.8555    0.0000 C   0  0  0  0  0  0  0  0  0  0  0  0
    6.1865    6.4289    0.0000 F   0  0  0  0  0  0  0  0  0  0  0  0
    5.6464    8.9702    0.0000 C   0  0  0  0  0  0  0  0  0  0  0  0
    4.1791    8.6583    0.0000 N   0  0  0  0  0  0  0  0  0  0  0  0
    3.7156    7.2317    0.0000 C   0  0  0  0  0  0  0  0  0  0  0  0
    4.7193    6.1170    0.0000 O   0  0  0  0  0  0  0  0  0  0  0  0
    2.2484    6.9199    0.0000 N   0  0  0  0  0  0  0  0  0  0  0  0
    1.7849    5.4933    0.0000 C   0  0  0  0  0  0  0  0  0  0  0  0
    0.3177    5.1814    0.0000 C   0  0  0  0  0  0  0  0  0  0  0  0
   -0.1459    3.7548    0.0000 C   0  0  0  0  0  0  0  0  0  0  0  0
    0.8578    2.6401    0.0000 C   0  0  0  0  0  0  0  0  0  0  0  0
    2.3250    2.9520    0.0000 C   0  0  0  0  0  0  0  0  0  0  0  0
    2.7886    4.3786    0.0000 C   0  0  0  0  0  0  0  0  0  0  0  0
    0.3943    1.2135    0.0000 C   0  0  0  0  0  0  0  0  0  0  0  0
    1.2760    0.0000    0.0000 C   0  0  0  0  0  0  0  0  0  0  0  0
    0.3943   -1.2135    0.0000 O   0  0  0  0  0  0  0  0  0  0  0  0
   -1.0323   -0.7500    0.0000 C   0  0  0  0  0  0  0  0  0  0  0  0
   -2.3313   -1.5000    0.0000 C   0  0  0  0  0  0  0  0  0  0  0  0
   -3.6304   -0.7500    0.0000 C   0  0  0  0  0  0  0  0  0  0  0  0
   -3.6304    0.7500    0.0000 N   0  0  0  0  0  0  0  0  0  0  0  0
   -2.3313    1.5000    0.0000 C   0  0  0  0  0  0  0  0  0  0  0  0
   -2.3313    3.0000    0.0000 N   0  0  0  0  0  0  0  0  0  0  0  0
   -1.0323    0.7500    0.0000 C   0  0  0  0  0  0  0  0  0  0  0  0
   -2.3313   -3.0000    0.0000 C   0  0  0  0  0  0  0  0  0  0  0  0
   -2.3313   -4.5000    0.0000 C   0  0  0  0  0  0  0  0  0  0  0  0
   -2.3313   -6.0000    0.0000 C   0  0  0  0  0  0  0  0  0  0  0  0
   -3.6304   -6.7500    0.0000 N   0  0  0  0  0  0  0  0  0  0  0  0
   -4.9294   -6.0000    0.0000 C   0  0  0  0  0  0  0  0  0  0  0  0
   -6.2284   -6.7500    0.0000 C   0  0  0  0  0  0  0  0  0  0  0  0
   -6.2284   -8.2500    0.0000 O   0  0  0  0  0  0  0  0  0  0  0  0
   -4.9294   -9.0000    0.0000 C   0  0  0  0  0  0  0  0  0  0  0  0
   -3.6304   -8.2500    0.0000 C   0  0  0  0  0  0  0  0  0  0  0  0
    6.1099   10.3968    0.0000 C   0  0  0  0  0  0  0  0  0  0  0  0
  1  2  1  0
  2  3  2  0
  3  4  1  0
  4  5  2  0
  5  6  1  0
  5  7  1  0
  7  8  1  0
  8  9  1  0
  9 10  2  0
  9 11  1  0
 11 12  1  0
 12 13  2  0
 13 14  1  0
 14 15  2  0
 15 16  1  0
 16 17  2  0
 15 18  1  0
 18 19  2  0
 19 20  1  0
 20 21  1  0
 21 22  2  0
 22 23  1  0
 23 24  2  0
 24 25  1  0
 25 26  1  0
 25 27  2  0
 22 28  1  0
 28 29  3  0
 29 30  1  0
 30 31  1  0
 31 32  1  0
 32 33  1  0
 33 34  1  0
 34 35  1  0
 35 36  1  0
  7 37  2  0
 37  2  1  0
 17 12  1  0
 27 18  1  0
 27 21  1  0
 36 31  1  0
M  END
>  <Molecule>  (809) 
CHEMBL1983640

>  <Standard Type>  (809) 
Ki

>  <Standard Relation>  (809) 
>

>  <Standard Value>  (809) 
5011.87

>  <Standard Units>  (809) 
nM

>  <pChEMBL Value>  (809) 
nan

>  <Comment>  (809) 
inactive

>  <Compound Key>  (809) 
SID103904282

>  <Assay>  (809) 
CHEMBL1963742

>  <Assay Description>  (809) 
PUBCHEM_BIOASSAY: Navigating the Kinome. (Class of assay: other) Panel member name: JAK3

>  <BAO Format>  (809) 
assay format

>  <Target>  (809) 
CHEMBL2148

>  <Target Pref. Name>  (809) 
Tyrosine-protein kinase JAK3

>  <Target Organism>  (809) 
Homo sapiens

>  <Target Type>  (809) 
SINGLE PROTEIN

>  <Document>  (809) 
CHEMBL1201862

>  <Source>  (809) 
PubChem BioAssays

>  <Max Phase>  (809) 
0

>  <#Ro5 Violations>  (809) 
0

>  <Molecular Weight>  (809) 
499.55

>  <Ligand Efficiency BEI>  (809) 
nan

>  <Ligand Efficiency LE>  (809) 
nan

>  <Ligand Efficiency LLE>  (809) 
nan

>  <Ligand Efficiency SEI>  (809) 
nan

>  <ALogP>  (809) 
4.85

>  <Assay Organism>  (809) 
nan

>  <Assay Tissue ChEMBL ID>  (809) 
nan

>  <Assay Tissue Name>  (809) 
nan

>  <Assay Cell Type>  (809) 
nan

>  <Assay Subcellular Fraction>  (809) 
nan

>  <Organism Tax ID>  (809) 
9606

>  <BAO Format ID>  (809) 
BAO_0000019

>  <Published Type>  (809) 
nan

>  <Published Relation>  (809) 
nan

>  <Published Value>  (809) 
nan

>  <Published Units>  (809) 
nan

>  <Canonical Smiles>  (809) 
Cc1ccc(F)c(NC(=O)Nc2ccc(cc2)c3coc4c(cnc(N)c34)C#CCN5CCOCC5)c1

>  <Data Validity Comment>  (809) 
nan

>  <Document Journal>  (809) 
nan

>  <Document Year>  (809) 
nan

>  <SRC ID>  (809) 
7

>  <UO Units>  (809) 
UO_0000065

>  <Potential Duplicate>  (809) 
False

>  <Class>  (809) 
0

$$$$

     RDKit          2D

 27 30  0  0  0  0  0  0  0  0999 V2000
   -3.7500    1.2990    0.0000 C   0  0  0  0  0  0  0  0  0  0  0  0
   -3.0000    0.0000    0.0000 C   0  0  0  0  0  0  0  0  0  0  0  0
   -3.7500   -1.2990    0.0000 C   0  0  0  0  0  0  0  0  0  0  0  0
   -5.2500   -1.2990    0.0000 O   0  0  0  0  0  0  0  0  0  0  0  0
   -3.0000   -2.5981    0.0000 C   0  0  0  0  0  0  0  0  0  0  0  0
   -1.5000   -2.5981    0.0000 C   0  0  0  0  0  0  0  0  0  0  0  0
   -0.7500   -1.2990    0.0000 C   0  0  0  0  0  0  0  0  0  0  0  0
    0.7500   -1.2990    0.0000 C   0  0  0  0  0  0  0  0  0  0  0  0
    1.5000   -2.5981    0.0000 N   0  0  0  0  0  0  0  0  0  0  0  0
    3.0000   -2.5981    0.0000 N   0  0  0  0  0  0  0  0  0  0  0  0
    3.7500   -3.8971    0.0000 C   0  0  0  0  0  0  0  0  0  0  0  0
    3.0000   -5.1962    0.0000 O   0  0  0  0  0  0  0  0  0  0  0  0
    5.2500   -3.8971    0.0000 C   0  0  0  0  0  0  0  0  0  0  0  0
    6.0000   -5.1962    0.0000 C   0  0  0  0  0  0  0  0  0  0  0  0
    5.2500   -6.4952    0.0000 C   0  0  0  0  0  0  0  0  0  0  0  0
    6.0000   -7.7942    0.0000 C   0  0  0  0  0  0  0  0  0  0  0  0
    7.5000   -7.7942    0.0000 C   0  0  0  0  0  0  0  0  0  0  0  0
    8.2500   -6.4952    0.0000 C   0  0  0  0  0  0  0  0  0  0  0  0
    9.7500   -6.4952    0.0000 C   0  0  0  0  0  0  0  0  0  0  0  0
   10.5000   -5.1962    0.0000 C   0  0  0  0  0  0  0  0  0  0  0  0
    9.7500   -3.8971    0.0000 C   0  0  0  0  0  0  0  0  0  0  0  0
    8.2500   -3.8971    0.0000 C   0  0  0  0  0  0  0  0  0  0  0  0
    7.5000   -5.1962    0.0000 C   0  0  0  0  0  0  0  0  0  0  0  0
    1.5000    0.0000    0.0000 C   0  0  0  0  0  0  0  0  0  0  0  0
    0.7500    1.2990    0.0000 C   0  0  0  0  0  0  0  0  0  0  0  0
   -0.7500    1.2990    0.0000 C   0  0  0  0  0  0  0  0  0  0  0  0
   -1.5000    0.0000    0.0000 C   0  0  0  0  0  0  0  0  0  0  0  0
  1  2  1  0
  2  3  2  0
  3  4  1  0
  3  5  1  0
  5  6  2  0
  6  7  1  0
  7  8  1  0
  8  9  2  3
  9 10  1  0
 10 11  1  0
 11 12  2  0
 11 13  1  0
 13 14  1  0
 14 15  2  0
 15 16  1  0
 16 17  2  0
 17 18  1  0
 18 19  2  0
 19 20  1  0
 20 21  2  0
 21 22  1  0
 22 23  2  0
  8 24  1  0
 24 25  1  0
 25 26  1  0
 26 27  1  0
 27  2  1  0
 27  7  2  0
 23 14  1  0
 23 18  1  0
M  END
>  <Molecule>  (810) 
CHEMBL1972659

>  <Standard Type>  (810) 
Ki

>  <Standard Relation>  (810) 
>

>  <Standard Value>  (810) 
1584.89

>  <Standard Units>  (810) 
nM

>  <pChEMBL Value>  (810) 
nan

>  <Comment>  (810) 
inactive

>  <Compound Key>  (810) 
SID103905060

>  <Assay>  (810) 
CHEMBL1963742

>  <Assay Description>  (810) 
PUBCHEM_BIOASSAY: Navigating the Kinome. (Class of assay: other) Panel member name: JAK3

>  <BAO Format>  (810) 
assay format

>  <Target>  (810) 
CHEMBL2148

>  <Target Pref. Name>  (810) 
Tyrosine-protein kinase JAK3

>  <Target Organism>  (810) 
Homo sapiens

>  <Target Type>  (810) 
SINGLE PROTEIN

>  <Document>  (810) 
CHEMBL1201862

>  <Source>  (810) 
PubChem BioAssays

>  <Max Phase>  (810) 
0

>  <#Ro5 Violations>  (810) 
0

>  <Molecular Weight>  (810) 
358.44

>  <Ligand Efficiency BEI>  (810) 
nan

>  <Ligand Efficiency LE>  (810) 
nan

>  <Ligand Efficiency LLE>  (810) 
nan

>  <Ligand Efficiency SEI>  (810) 
nan

>  <ALogP>  (810) 
4.25

>  <Assay Organism>  (810) 
nan

>  <Assay Tissue ChEMBL ID>  (810) 
nan

>  <Assay Tissue Name>  (810) 
nan

>  <Assay Cell Type>  (810) 
nan

>  <Assay Subcellular Fraction>  (810) 
nan

>  <Organism Tax ID>  (810) 
9606

>  <BAO Format ID>  (810) 
BAO_0000019

>  <Published Type>  (810) 
nan

>  <Published Relation>  (810) 
nan

>  <Published Value>  (810) 
nan

>  <Published Units>  (810) 
nan

>  <Canonical Smiles>  (810) 
Cc1c(O)ccc2C(=NNC(=O)Cc3cccc4ccccc34)CCCc12

>  <Data Validity Comment>  (810) 
nan

>  <Document Journal>  (810) 
nan

>  <Document Year>  (810) 
nan

>  <SRC ID>  (810) 
7

>  <UO Units>  (810) 
UO_0000065

>  <Potential Duplicate>  (810) 
False

>  <Class>  (810) 
0

$$$$

     RDKit          2D

 29 32  0  0  0  0  0  0  0  0999 V2000
    4.8308   -6.3240    0.0000 C   0  0  0  0  0  0  0  0  0  0  0  0
    4.6740   -4.8322    0.0000 C   0  0  0  0  0  0  0  0  0  0  0  0
    3.3037   -4.2221    0.0000 C   0  0  0  0  0  0  0  0  0  0  0  0
    2.9918   -2.7549    0.0000 N   0  0  0  0  0  0  0  0  0  0  0  0
    1.5000   -2.5981    0.0000 C   0  0  0  0  0  0  0  0  0  0  0  0
    0.7500   -1.2990    0.0000 C   0  0  0  0  0  0  0  0  0  0  0  0
    1.5000    0.0000    0.0000 C   0  0  0  0  0  0  0  0  0  0  0  0
    0.7500    1.2990    0.0000 C   0  0  0  0  0  0  0  0  0  0  0  0
   -0.7500    1.2990    0.0000 C   0  0  0  0  0  0  0  0  0  0  0  0
   -1.5000    0.0000    0.0000 C   0  0  0  0  0  0  0  0  0  0  0  0
   -3.0000    0.0000    0.0000 C   0  0  0  0  0  0  0  0  0  0  0  0
   -0.7500   -1.2990    0.0000 C   0  0  0  0  0  0  0  0  0  0  0  0
    0.8899   -3.9684    0.0000 C   0  0  0  0  0  0  0  0  0  0  0  0
    2.0046   -4.9721    0.0000 S   0  0  0  0  0  0  0  0  0  0  0  0
   -0.5773   -4.2803    0.0000 C   0  0  0  0  0  0  0  0  0  0  0  0
   -1.5810   -3.1655    0.0000 C   0  0  0  0  0  0  0  0  0  0  0  0
   -3.0482   -3.4774    0.0000 C   0  0  0  0  0  0  0  0  0  0  0  0
   -3.5118   -4.9040    0.0000 N   0  0  0  0  0  0  0  0  0  0  0  0
   -2.5081   -6.0187    0.0000 C   0  0  0  0  0  0  0  0  0  0  0  0
   -2.9716   -7.4453    0.0000 N   0  0  0  0  0  0  0  0  0  0  0  0
   -4.4388   -7.7572    0.0000 C   0  0  0  0  0  0  0  0  0  0  0  0
   -5.4425   -6.6424    0.0000 O   0  0  0  0  0  0  0  0  0  0  0  0
   -4.9023   -9.1838    0.0000 C   0  0  0  0  0  0  0  0  0  0  0  0
   -6.3696   -9.4956    0.0000 C   0  0  0  0  0  0  0  0  0  0  0  0
   -6.8331  -10.9222    0.0000 C   0  0  0  0  0  0  0  0  0  0  0  0
   -5.8294  -12.0369    0.0000 C   0  0  0  0  0  0  0  0  0  0  0  0
   -4.3622  -11.7251    0.0000 C   0  0  0  0  0  0  0  0  0  0  0  0
   -3.8986  -10.2985    0.0000 C   0  0  0  0  0  0  0  0  0  0  0  0
   -1.0409   -5.7068    0.0000 C   0  0  0  0  0  0  0  0  0  0  0  0
  1  2  1  0
  2  3  1  0
  3  4  2  0
  4  5  1  0
  5  6  1  0
  6  7  2  0
  7  8  1  0
  8  9  2  0
  9 10  1  0
 10 11  1  0
 10 12  2  0
  5 13  2  0
 13 14  1  0
 13 15  1  0
 15 16  2  0
 16 17  1  0
 17 18  2  0
 18 19  1  0
 19 20  1  0
 20 21  1  0
 21 22  2  0
 21 23  1  0
 23 24  2  0
 24 25  1  0
 25 26  2  0
 26 27  1  0
 27 28  2  0
 19 29  2  0
 14  3  1  0
 12  6  1  0
 29 15  1  0
 28 23  1  0
M  END
>  <Molecule>  (811) 
CHEMBL363648

>  <Standard Type>  (811) 
Ki

>  <Standard Relation>  (811) 
>

>  <Standard Value>  (811) 
1584.89

>  <Standard Units>  (811) 
nM

>  <pChEMBL Value>  (811) 
nan

>  <Comment>  (811) 
inactive

>  <Compound Key>  (811) 
SID103905024

>  <Assay>  (811) 
CHEMBL1963742

>  <Assay Description>  (811) 
PUBCHEM_BIOASSAY: Navigating the Kinome. (Class of assay: other) Panel member name: JAK3

>  <BAO Format>  (811) 
assay format

>  <Target>  (811) 
CHEMBL2148

>  <Target Pref. Name>  (811) 
Tyrosine-protein kinase JAK3

>  <Target Organism>  (811) 
Homo sapiens

>  <Target Type>  (811) 
SINGLE PROTEIN

>  <Document>  (811) 
CHEMBL1201862

>  <Source>  (811) 
PubChem BioAssays

>  <Max Phase>  (811) 
2

>  <#Ro5 Violations>  (811) 
1

>  <Molecular Weight>  (811) 
399.52

>  <Ligand Efficiency BEI>  (811) 
nan

>  <Ligand Efficiency LE>  (811) 
nan

>  <Ligand Efficiency LLE>  (811) 
nan

>  <Ligand Efficiency SEI>  (811) 
nan

>  <ALogP>  (811) 
6.0

>  <Assay Organism>  (811) 
nan

>  <Assay Tissue ChEMBL ID>  (811) 
nan

>  <Assay Tissue Name>  (811) 
nan

>  <Assay Cell Type>  (811) 
nan

>  <Assay Subcellular Fraction>  (811) 
nan

>  <Organism Tax ID>  (811) 
9606

>  <BAO Format ID>  (811) 
BAO_0000019

>  <Published Type>  (811) 
nan

>  <Published Relation>  (811) 
nan

>  <Published Value>  (811) 
nan

>  <Published Units>  (811) 
nan

>  <Canonical Smiles>  (811) 
CCc1nc(c2cccc(C)c2)c(s1)c3ccnc(NC(=O)c4ccccc4)c3

>  <Data Validity Comment>  (811) 
nan

>  <Document Journal>  (811) 
nan

>  <Document Year>  (811) 
nan

>  <SRC ID>  (811) 
7

>  <UO Units>  (811) 
UO_0000065

>  <Potential Duplicate>  (811) 
False

>  <Class>  (811) 
0

$$$$

     RDKit          2D

 35 38  0  0  0  0  0  0  0  0999 V2000
    0.7500   -3.8971    0.0000 C   0  0  0  0  0  0  0  0  0  0  0  0
    1.5000   -2.5981    0.0000 N   0  0  0  0  0  0  0  0  0  0  0  0
    3.0000   -2.5981    0.0000 C   0  0  0  0  0  0  0  0  0  0  0  0
    3.7500   -1.2990    0.0000 O   0  0  0  0  0  0  0  0  0  0  0  0
    3.7500   -3.8971    0.0000 C   0  0  0  0  0  0  0  0  0  0  0  0
    3.0000   -5.1962    0.0000 C   0  0  0  0  0  0  0  0  0  0  0  0
    3.7500   -6.4952    0.0000 C   0  0  0  0  0  0  0  0  0  0  0  0
    5.2500   -6.4952    0.0000 C   0  0  0  0  0  0  0  0  0  0  0  0
    6.0000   -5.1962    0.0000 C   0  0  0  0  0  0  0  0  0  0  0  0
    5.2500   -3.8971    0.0000 C   0  0  0  0  0  0  0  0  0  0  0  0
    0.7500   -1.2990    0.0000 C   0  0  0  0  0  0  0  0  0  0  0  0
    1.5000    0.0000    0.0000 C   0  0  0  0  0  0  0  0  0  0  0  0
    0.7500    1.2990    0.0000 C   0  0  0  0  0  0  0  0  0  0  0  0
   -0.7500    1.2990    0.0000 C   0  0  0  0  0  0  0  0  0  0  0  0
   -1.5000    0.0000    0.0000 C   0  0  0  0  0  0  0  0  0  0  0  0
   -0.7500   -1.2990    0.0000 C   0  0  0  0  0  0  0  0  0  0  0  0
   -2.9672    0.3119    0.0000 N   0  0  0  0  0  0  0  0  0  0  0  0
   -3.1240    1.8037    0.0000 C   0  0  0  0  0  0  0  0  0  0  0  0
   -4.4231    2.5537    0.0000 N   0  0  0  0  0  0  0  0  0  0  0  0
   -4.4231    4.0537    0.0000 C   0  0  0  0  0  0  0  0  0  0  0  0
   -3.1240    4.8037    0.0000 O   0  0  0  0  0  0  0  0  0  0  0  0
   -5.7221    4.8037    0.0000 C   0  0  0  0  0  0  0  0  0  0  0  0
   -5.7221    6.3037    0.0000 C   0  0  0  0  0  0  0  0  0  0  0  0
   -7.0211    7.0537    0.0000 C   0  0  0  0  0  0  0  0  0  0  0  0
   -8.3202    6.3037    0.0000 C   0  0  0  0  0  0  0  0  0  0  0  0
   -8.3202    4.8037    0.0000 C   0  0  0  0  0  0  0  0  0  0  0  0
   -7.0211    4.0537    0.0000 C   0  0  0  0  0  0  0  0  0  0  0  0
   -9.6192    7.0537    0.0000 C   0  0  0  0  0  0  0  0  0  0  0  0
  -10.9182    7.8037    0.0000 N   0  0  0  0  0  0  0  0  0  0  0  0
   -1.7537    2.4138    0.0000 N   0  0  0  0  0  0  0  0  0  0  0  0
   -1.4418    3.8810    0.0000 C   0  0  0  0  0  0  0  0  0  0  0  0
   -0.0152    4.3445    0.0000 C   0  0  0  0  0  0  0  0  0  0  0  0
    0.2966    5.8117    0.0000 C   0  0  0  0  0  0  0  0  0  0  0  0
   -0.8181    6.8154    0.0000 O   0  0  0  0  0  0  0  0  0  0  0  0
    1.7232    6.2752    0.0000 N   0  0  0  0  0  0  0  0  0  0  0  0
  1  2  1  0
  2  3  1  0
  3  4  2  0
  3  5  1  0
  5  6  1  0
  6  7  1  0
  7  8  1  0
  8  9  1  0
  9 10  1  0
  2 11  1  0
 11 12  2  0
 12 13  1  0
 13 14  2  0
 14 15  1  0
 15 16  2  0
 15 17  1  0
 17 18  2  0
 18 19  1  0
 19 20  1  0
 20 21  2  0
 20 22  1  0
 22 23  2  0
 23 24  1  0
 24 25  2  0
 25 26  1  0
 26 27  2  0
 25 28  1  0
 28 29  3  0
 18 30  1  0
 30 31  1  0
 31 32  1  0
 32 33  1  0
 33 34  2  0
 33 35  1  0
 10  5  1  0
 16 11  1  0
 30 14  1  0
 27 22  1  0
M  END
>  <Molecule>  (812) 
CHEMBL485556

>  <Standard Type>  (812) 
Ki

>  <Standard Relation>  (812) 
>

>  <Standard Value>  (812) 
1584.89

>  <Standard Units>  (812) 
nM

>  <pChEMBL Value>  (812) 
nan

>  <Comment>  (812) 
inactive

>  <Compound Key>  (812) 
SID103905075

>  <Assay>  (812) 
CHEMBL1963742

>  <Assay Description>  (812) 
PUBCHEM_BIOASSAY: Navigating the Kinome. (Class of assay: other) Panel member name: JAK3

>  <BAO Format>  (812) 
assay format

>  <Target>  (812) 
CHEMBL2148

>  <Target Pref. Name>  (812) 
Tyrosine-protein kinase JAK3

>  <Target Organism>  (812) 
Homo sapiens

>  <Target Type>  (812) 
SINGLE PROTEIN

>  <Document>  (812) 
CHEMBL1201862

>  <Source>  (812) 
PubChem BioAssays

>  <Max Phase>  (812) 
0

>  <#Ro5 Violations>  (812) 
0

>  <Molecular Weight>  (812) 
472.55

>  <Ligand Efficiency BEI>  (812) 
nan

>  <Ligand Efficiency LE>  (812) 
nan

>  <Ligand Efficiency LLE>  (812) 
nan

>  <Ligand Efficiency SEI>  (812) 
nan

>  <ALogP>  (812) 
3.58

>  <Assay Organism>  (812) 
nan

>  <Assay Tissue ChEMBL ID>  (812) 
nan

>  <Assay Tissue Name>  (812) 
nan

>  <Assay Cell Type>  (812) 
nan

>  <Assay Subcellular Fraction>  (812) 
nan

>  <Organism Tax ID>  (812) 
9606

>  <BAO Format ID>  (812) 
BAO_0000019

>  <Published Type>  (812) 
nan

>  <Published Relation>  (812) 
nan

>  <Published Value>  (812) 
nan

>  <Published Units>  (812) 
nan

>  <Canonical Smiles>  (812) 
CN(C(=O)C1CCCCC1)c2ccc3c(c2)nc(NC(=O)c4ccc(cc4)C#N)n3CCC(=O)N

>  <Data Validity Comment>  (812) 
nan

>  <Document Journal>  (812) 
nan

>  <Document Year>  (812) 
nan

>  <SRC ID>  (812) 
7

>  <UO Units>  (812) 
UO_0000065

>  <Potential Duplicate>  (812) 
False

>  <Class>  (812) 
0

$$$$

     RDKit          2D

 27 30  0  0  0  0  0  0  0  0999 V2000
   -4.9294   -7.5000    0.0000 C   0  0  0  0  0  0  0  0  0  0  0  0
   -4.9294   -6.0000    0.0000 N   0  0  0  0  0  0  0  0  0  0  0  0
   -3.6304   -5.2500    0.0000 C   0  0  0  0  0  0  0  0  0  0  0  0
   -2.3313   -6.0000    0.0000 O   0  0  0  0  0  0  0  0  0  0  0  0
   -3.6304   -3.7500    0.0000 C   0  0  0  0  0  0  0  0  0  0  0  0
   -2.3313   -3.0000    0.0000 C   0  0  0  0  0  0  0  0  0  0  0  0
   -2.3313   -1.5000    0.0000 C   0  0  0  0  0  0  0  0  0  0  0  0
   -3.6304   -0.7500    0.0000 C   0  0  0  0  0  0  0  0  0  0  0  0
   -3.6304    0.7500    0.0000 N   0  0  0  0  0  0  0  0  0  0  0  0
   -2.3313    1.5000    0.0000 C   0  0  0  0  0  0  0  0  0  0  0  0
   -2.3313    3.0000    0.0000 N   0  0  0  0  0  0  0  0  0  0  0  0
   -1.0323    0.7500    0.0000 C   0  0  0  0  0  0  0  0  0  0  0  0
    0.3943    1.2135    0.0000 C   0  0  0  0  0  0  0  0  0  0  0  0
    1.2760    0.0000    0.0000 C   0  0  0  0  0  0  0  0  0  0  0  0
    0.3943   -1.2135    0.0000 S   0  0  0  0  0  0  0  0  0  0  0  0
   -1.0323   -0.7500    0.0000 C   0  0  0  0  0  0  0  0  0  0  0  0
    0.8578    2.6401    0.0000 C   0  0  0  0  0  0  0  0  0  0  0  0
   -0.1459    3.7548    0.0000 C   0  0  0  0  0  0  0  0  0  0  0  0
    0.3177    5.1814    0.0000 C   0  0  0  0  0  0  0  0  0  0  0  0
   -0.6860    6.2961    0.0000 F   0  0  0  0  0  0  0  0  0  0  0  0
    1.7849    5.4933    0.0000 C   0  0  0  0  0  0  0  0  0  0  0  0
    2.5349    6.7923    0.0000 N   0  0  0  0  0  0  0  0  0  0  0  0
    4.0021    6.4805    0.0000 C   0  0  0  0  0  0  0  0  0  0  0  0
    5.1168    7.4841    0.0000 C   0  0  0  0  0  0  0  0  0  0  0  0
    4.1589    4.9887    0.0000 C   0  0  0  0  0  0  0  0  0  0  0  0
    2.7886    4.3786    0.0000 C   0  0  0  0  0  0  0  0  0  0  0  0
    2.3250    2.9520    0.0000 C   0  0  0  0  0  0  0  0  0  0  0  0
  1  2  1  0
  2  3  1  0
  3  4  2  0
  3  5  1  0
  5  6  2  3
  6  7  1  0
  7  8  2  0
  8  9  1  0
  9 10  2  0
 10 11  1  0
 10 12  1  0
 12 13  1  0
 13 14  2  0
 14 15  1  0
 15 16  1  0
 13 17  1  0
 17 18  2  0
 18 19  1  0
 19 20  1  0
 19 21  2  0
 21 22  1  0
 22 23  1  0
 23 24  1  0
 23 25  2  0
 25 26  1  0
 26 27  2  0
 16  7  1  0
 16 12  2  0
 27 17  1  0
 26 21  1  0
M  END
>  <Molecule>  (813) 
CHEMBL2006778

>  <Standard Type>  (813) 
Ki

>  <Standard Relation>  (813) 
=

>  <Standard Value>  (813) 
251.19

>  <Standard Units>  (813) 
nM

>  <pChEMBL Value>  (813) 
6.6

>  <Comment>  (813) 
active

>  <Compound Key>  (813) 
SID103905094

>  <Assay>  (813) 
CHEMBL1963742

>  <Assay Description>  (813) 
PUBCHEM_BIOASSAY: Navigating the Kinome. (Class of assay: other) Panel member name: JAK3

>  <BAO Format>  (813) 
assay format

>  <Target>  (813) 
CHEMBL2148

>  <Target Pref. Name>  (813) 
Tyrosine-protein kinase JAK3

>  <Target Organism>  (813) 
Homo sapiens

>  <Target Type>  (813) 
SINGLE PROTEIN

>  <Document>  (813) 
CHEMBL1201862

>  <Source>  (813) 
PubChem BioAssays

>  <Max Phase>  (813) 
0

>  <#Ro5 Violations>  (813) 
0

>  <Molecular Weight>  (813) 
380.45

>  <Ligand Efficiency BEI>  (813) 
nan

>  <Ligand Efficiency LE>  (813) 
nan

>  <Ligand Efficiency LLE>  (813) 
nan

>  <Ligand Efficiency SEI>  (813) 
nan

>  <ALogP>  (813) 
4.23

>  <Assay Organism>  (813) 
nan

>  <Assay Tissue ChEMBL ID>  (813) 
nan

>  <Assay Tissue Name>  (813) 
nan

>  <Assay Cell Type>  (813) 
nan

>  <Assay Subcellular Fraction>  (813) 
nan

>  <Organism Tax ID>  (813) 
9606

>  <BAO Format ID>  (813) 
BAO_0000019

>  <Published Type>  (813) 
nan

>  <Published Relation>  (813) 
nan

>  <Published Value>  (813) 
nan

>  <Published Units>  (813) 
nan

>  <Canonical Smiles>  (813) 
CNC(=O)C=Cc1cnc(N)c2c(csc12)c3cc(F)c4[nH]c(C)cc4c3

>  <Data Validity Comment>  (813) 
nan

>  <Document Journal>  (813) 
nan

>  <Document Year>  (813) 
nan

>  <SRC ID>  (813) 
7

>  <UO Units>  (813) 
UO_0000065

>  <Potential Duplicate>  (813) 
False

>  <Class>  (813) 
1

$$$$

     RDKit          2D

 25 28  0  0  0  0  0  0  0  0999 V2000
   -0.3326  -10.8791    0.0000 C   0  0  0  0  0  0  0  0  0  0  0  0
    0.5490   -9.6656    0.0000 C   0  0  0  0  0  0  0  0  0  0  0  0
    2.0490   -9.6656    0.0000 C   0  0  0  0  0  0  0  0  0  0  0  0
    2.5126   -8.2390    0.0000 S   0  0  0  0  0  0  0  0  0  0  0  0
    1.2990   -7.3573    0.0000 C   0  0  0  0  0  0  0  0  0  0  0  0
    1.2990   -5.8573    0.0000 N   0  0  0  0  0  0  0  0  0  0  0  0
   -0.0000   -5.1073    0.0000 C   0  0  0  0  0  0  0  0  0  0  0  0
   -1.2990   -5.8573    0.0000 O   0  0  0  0  0  0  0  0  0  0  0  0
   -0.0000   -3.6073    0.0000 C   0  0  0  0  0  0  0  0  0  0  0  0
    1.2135   -2.7256    0.0000 S   0  0  0  0  0  0  0  0  0  0  0  0
    0.7500   -1.2990    0.0000 C   0  0  0  0  0  0  0  0  0  0  0  0
    1.5000    0.0000    0.0000 N   0  0  0  0  0  0  0  0  0  0  0  0
    0.7500    1.2990    0.0000 C   0  0  0  0  0  0  0  0  0  0  0  0
   -0.7500    1.2990    0.0000 C   0  0  0  0  0  0  0  0  0  0  0  0
   -1.5000    0.0000    0.0000 C   0  0  0  0  0  0  0  0  0  0  0  0
   -0.7500   -1.2990    0.0000 C   0  0  0  0  0  0  0  0  0  0  0  0
   -1.2135   -2.7256    0.0000 C   0  0  0  0  0  0  0  0  0  0  0  0
   -2.6401   -3.1891    0.0000 N   0  0  0  0  0  0  0  0  0  0  0  0
    1.5000    2.5981    0.0000 C   0  0  0  0  0  0  0  0  0  0  0  0
    3.0000    2.5981    0.0000 C   0  0  0  0  0  0  0  0  0  0  0  0
    3.7500    3.8971    0.0000 C   0  0  0  0  0  0  0  0  0  0  0  0
    3.0000    5.1962    0.0000 N   0  0  0  0  0  0  0  0  0  0  0  0
    1.5000    5.1962    0.0000 C   0  0  0  0  0  0  0  0  0  0  0  0
    0.7500    3.8971    0.0000 C   0  0  0  0  0  0  0  0  0  0  0  0
    0.0855   -8.2390    0.0000 N   0  0  0  0  0  0  0  0  0  0  0  0
  1  2  1  0
  2  3  2  0
  3  4  1  0
  4  5  1  0
  5  6  1  0
  6  7  1  0
  7  8  2  0
  7  9  1  0
  9 10  1  0
 10 11  1  0
 11 12  2  0
 12 13  1  0
 13 14  2  0
 14 15  1  0
 15 16  2  0
 16 17  1  0
 17 18  1  0
 13 19  1  0
 19 20  2  0
 20 21  1  0
 21 22  2  0
 22 23  1  0
 23 24  2  0
  5 25  2  0
 25  2  1  0
 17  9  2  0
 16 11  1  0
 24 19  1  0
M  END
>  <Molecule>  (814) 
CHEMBL1986869

>  <Standard Type>  (814) 
Ki

>  <Standard Relation>  (814) 
>

>  <Standard Value>  (814) 
1584.89

>  <Standard Units>  (814) 
nM

>  <pChEMBL Value>  (814) 
nan

>  <Comment>  (814) 
inactive

>  <Compound Key>  (814) 
SID103905569

>  <Assay>  (814) 
CHEMBL1963742

>  <Assay Description>  (814) 
PUBCHEM_BIOASSAY: Navigating the Kinome. (Class of assay: other) Panel member name: JAK3

>  <BAO Format>  (814) 
assay format

>  <Target>  (814) 
CHEMBL2148

>  <Target Pref. Name>  (814) 
Tyrosine-protein kinase JAK3

>  <Target Organism>  (814) 
Homo sapiens

>  <Target Type>  (814) 
SINGLE PROTEIN

>  <Document>  (814) 
CHEMBL1201862

>  <Source>  (814) 
PubChem BioAssays

>  <Max Phase>  (814) 
0

>  <#Ro5 Violations>  (814) 
0

>  <Molecular Weight>  (814) 
367.46

>  <Ligand Efficiency BEI>  (814) 
nan

>  <Ligand Efficiency LE>  (814) 
nan

>  <Ligand Efficiency LLE>  (814) 
nan

>  <Ligand Efficiency SEI>  (814) 
nan

>  <ALogP>  (814) 
3.96

>  <Assay Organism>  (814) 
nan

>  <Assay Tissue ChEMBL ID>  (814) 
nan

>  <Assay Tissue Name>  (814) 
nan

>  <Assay Cell Type>  (814) 
nan

>  <Assay Subcellular Fraction>  (814) 
nan

>  <Organism Tax ID>  (814) 
9606

>  <BAO Format ID>  (814) 
BAO_0000019

>  <Published Type>  (814) 
nan

>  <Published Relation>  (814) 
nan

>  <Published Value>  (814) 
nan

>  <Published Units>  (814) 
nan

>  <Canonical Smiles>  (814) 
Cc1csc(NC(=O)c2sc3nc(ccc3c2N)c4ccncc4)n1

>  <Data Validity Comment>  (814) 
nan

>  <Document Journal>  (814) 
nan

>  <Document Year>  (814) 
nan

>  <SRC ID>  (814) 
7

>  <UO Units>  (814) 
UO_0000065

>  <Potential Duplicate>  (814) 
False

>  <Class>  (814) 
0

$$$$

     RDKit          2D

 23 25  0  0  0  0  0  0  0  0999 V2000
    3.7500   -1.2990    0.0000 C   0  0  0  0  0  0  0  0  0  0  0  0
    3.0000    0.0000    0.0000 O   0  0  0  0  0  0  0  0  0  0  0  0
    1.5000    0.0000    0.0000 C   0  0  0  0  0  0  0  0  0  0  0  0
    0.7500   -1.2990    0.0000 C   0  0  0  0  0  0  0  0  0  0  0  0
   -0.7500   -1.2990    0.0000 C   0  0  0  0  0  0  0  0  0  0  0  0
   -1.5000    0.0000    0.0000 C   0  0  0  0  0  0  0  0  0  0  0  0
   -3.0000    0.0000    0.0000 C   0  0  0  0  0  0  0  0  0  0  0  0
   -3.7500   -1.2990    0.0000 N   0  0  0  0  0  0  0  0  0  0  0  0
   -5.2500   -1.2990    0.0000 C   0  0  0  0  0  0  0  0  0  0  0  0
   -6.0000    0.0000    0.0000 O   0  0  0  0  0  0  0  0  0  0  0  0
   -6.0000   -2.5981    0.0000 N   0  0  0  0  0  0  0  0  0  0  0  0
   -7.5000   -2.5981    0.0000 C   0  0  0  0  0  0  0  0  0  0  0  0
   -8.2500   -1.2990    0.0000 C   0  0  0  0  0  0  0  0  0  0  0  0
   -9.7500   -1.2990    0.0000 C   0  0  0  0  0  0  0  0  0  0  0  0
  -10.5000   -2.5981    0.0000 C   0  0  0  0  0  0  0  0  0  0  0  0
   -9.7500   -3.8971    0.0000 C   0  0  0  0  0  0  0  0  0  0  0  0
  -10.5000   -5.1962    0.0000 Br  0  0  0  0  0  0  0  0  0  0  0  0
   -8.2500   -3.8971    0.0000 N   0  0  0  0  0  0  0  0  0  0  0  0
   -3.7500    1.2990    0.0000 C   0  0  0  0  0  0  0  0  0  0  0  0
   -3.0000    2.5981    0.0000 C   0  0  0  0  0  0  0  0  0  0  0  0
   -1.5000    2.5981    0.0000 N   0  0  0  0  0  0  0  0  0  0  0  0
   -0.7500    1.2990    0.0000 C   0  0  0  0  0  0  0  0  0  0  0  0
    0.7500    1.2990    0.0000 C   0  0  0  0  0  0  0  0  0  0  0  0
  1  2  1  0
  2  3  1  0
  3  4  2  0
  4  5  1  0
  5  6  2  0
  6  7  1  0
  7  8  1  0
  8  9  1  0
  9 10  2  0
  9 11  1  0
 11 12  1  0
 12 13  2  0
 13 14  1  0
 14 15  2  0
 15 16  1  0
 16 17  1  0
 16 18  2  0
  7 19  2  0
 19 20  1  0
 20 21  2  0
 21 22  1  0
 22 23  2  0
 23  3  1  0
 22  6  1  0
 18 12  1  0
M  END
>  <Molecule>  (815) 
CHEMBL1983932

>  <Standard Type>  (815) 
Ki

>  <Standard Relation>  (815) 
>

>  <Standard Value>  (815) 
1584.89

>  <Standard Units>  (815) 
nM

>  <pChEMBL Value>  (815) 
nan

>  <Comment>  (815) 
inactive

>  <Compound Key>  (815) 
SID103904891

>  <Assay>  (815) 
CHEMBL1963742

>  <Assay Description>  (815) 
PUBCHEM_BIOASSAY: Navigating the Kinome. (Class of assay: other) Panel member name: JAK3

>  <BAO Format>  (815) 
assay format

>  <Target>  (815) 
CHEMBL2148

>  <Target Pref. Name>  (815) 
Tyrosine-protein kinase JAK3

>  <Target Organism>  (815) 
Homo sapiens

>  <Target Type>  (815) 
SINGLE PROTEIN

>  <Document>  (815) 
CHEMBL1201862

>  <Source>  (815) 
PubChem BioAssays

>  <Max Phase>  (815) 
0

>  <#Ro5 Violations>  (815) 
0

>  <Molecular Weight>  (815) 
373.21

>  <Ligand Efficiency BEI>  (815) 
nan

>  <Ligand Efficiency LE>  (815) 
nan

>  <Ligand Efficiency LLE>  (815) 
nan

>  <Ligand Efficiency SEI>  (815) 
nan

>  <ALogP>  (815) 
4.04

>  <Assay Organism>  (815) 
nan

>  <Assay Tissue ChEMBL ID>  (815) 
nan

>  <Assay Tissue Name>  (815) 
nan

>  <Assay Cell Type>  (815) 
nan

>  <Assay Subcellular Fraction>  (815) 
nan

>  <Organism Tax ID>  (815) 
9606

>  <BAO Format ID>  (815) 
BAO_0000019

>  <Published Type>  (815) 
nan

>  <Published Relation>  (815) 
nan

>  <Published Value>  (815) 
nan

>  <Published Units>  (815) 
nan

>  <Canonical Smiles>  (815) 
COc1ccc2c(NC(=O)Nc3cccc(Br)n3)ccnc2c1

>  <Data Validity Comment>  (815) 
nan

>  <Document Journal>  (815) 
nan

>  <Document Year>  (815) 
nan

>  <SRC ID>  (815) 
7

>  <UO Units>  (815) 
UO_0000065

>  <Potential Duplicate>  (815) 
False

>  <Class>  (815) 
0

$$$$

     RDKit          2D

 30 32  0  0  0  0  0  0  0  0999 V2000
    3.0000    0.0000    0.0000 C   0  0  0  0  0  0  0  0  0  0  0  0
    1.5000    0.0000    0.0000 C   0  0  0  0  0  0  0  0  0  0  0  0
    0.7500   -1.2990    0.0000 C   0  0  0  0  0  0  0  0  0  0  0  0
   -0.7500   -1.2990    0.0000 C   0  0  0  0  0  0  0  0  0  0  0  0
   -1.5000   -2.5981    0.0000 O   0  0  0  0  0  0  0  0  0  0  0  0
   -0.7500   -3.8971    0.0000 C   0  0  0  0  0  0  0  0  0  0  0  0
   -1.5000   -5.1962    0.0000 C   0  0  0  0  0  0  0  0  0  0  0  0
   -0.8899   -6.5665    0.0000 C   0  0  0  0  0  0  0  0  0  0  0  0
   -2.0046   -7.5702    0.0000 C   0  0  0  0  0  0  0  0  0  0  0  0
   -3.3037   -6.8202    0.0000 C   0  0  0  0  0  0  0  0  0  0  0  0
   -2.9918   -5.3529    0.0000 C   0  0  0  0  0  0  0  0  0  0  0  0
   -4.6740   -7.4303    0.0000 C   0  0  0  0  0  0  0  0  0  0  0  0
   -4.8308   -8.9221    0.0000 O   0  0  0  0  0  0  0  0  0  0  0  0
   -5.8875   -6.5486    0.0000 O   0  0  0  0  0  0  0  0  0  0  0  0
   -1.5000    0.0000    0.0000 C   0  0  0  0  0  0  0  0  0  0  0  0
   -3.0000    0.0000    0.0000 N   0  0  0  0  0  0  0  0  0  0  0  0
   -3.7500    1.2990    0.0000 C   0  0  0  0  0  0  0  0  0  0  0  0
   -3.0000    2.5981    0.0000 O   0  0  0  0  0  0  0  0  0  0  0  0
   -5.2500    1.2990    0.0000 N   0  0  0  0  0  0  0  0  0  0  0  0
   -6.0000    2.5981    0.0000 C   0  0  0  0  0  0  0  0  0  0  0  0
   -5.2500    3.8971    0.0000 C   0  0  0  0  0  0  0  0  0  0  0  0
   -6.0000    5.1962    0.0000 N   0  0  0  0  0  0  0  0  0  0  0  0
   -7.5000    5.1962    0.0000 C   0  0  0  0  0  0  0  0  0  0  0  0
   -8.2500    3.8971    0.0000 C   0  0  0  0  0  0  0  0  0  0  0  0
   -7.5000    2.5981    0.0000 N   0  0  0  0  0  0  0  0  0  0  0  0
   -8.2500    6.4952    0.0000 C   0  0  0  0  0  0  0  0  0  0  0  0
   -9.0000    7.7942    0.0000 N   0  0  0  0  0  0  0  0  0  0  0  0
   -0.7500    1.2990    0.0000 C   0  0  0  0  0  0  0  0  0  0  0  0
    0.7500    1.2990    0.0000 C   0  0  0  0  0  0  0  0  0  0  0  0
    1.5000    2.5981    0.0000 Cl  0  0  0  0  0  0  0  0  0  0  0  0
  1  2  1  0
  2  3  2  0
  3  4  1  0
  4  5  1  0
  5  6  1  0
  6  7  1  0
  7  8  1  0
  8  9  1  0
  9 10  1  0
 10 11  1  0
 10 12  1  0
 12 13  2  0
 12 14  1  0
  4 15  2  0
 15 16  1  0
 16 17  1  0
 17 18  2  0
 17 19  1  0
 19 20  1  0
 20 21  2  0
 21 22  1  0
 22 23  2  0
 23 24  1  0
 24 25  2  0
 23 26  1  0
 26 27  3  0
 15 28  1  0
 28 29  2  0
 29 30  1  0
 29  2  1  0
 11  7  1  0
 25 20  1  0
M  END
>  <Molecule>  (816) 
CHEMBL1991285

>  <Standard Type>  (816) 
Ki

>  <Standard Relation>  (816) 
>

>  <Standard Value>  (816) 
1584.89

>  <Standard Units>  (816) 
nM

>  <pChEMBL Value>  (816) 
nan

>  <Comment>  (816) 
inactive

>  <Compound Key>  (816) 
SID103905154

>  <Assay>  (816) 
CHEMBL1963742

>  <Assay Description>  (816) 
PUBCHEM_BIOASSAY: Navigating the Kinome. (Class of assay: other) Panel member name: JAK3

>  <BAO Format>  (816) 
assay format

>  <Target>  (816) 
CHEMBL2148

>  <Target Pref. Name>  (816) 
Tyrosine-protein kinase JAK3

>  <Target Organism>  (816) 
Homo sapiens

>  <Target Type>  (816) 
SINGLE PROTEIN

>  <Document>  (816) 
CHEMBL1201862

>  <Source>  (816) 
PubChem BioAssays

>  <Max Phase>  (816) 
0

>  <#Ro5 Violations>  (816) 
0

>  <Molecular Weight>  (816) 
429.86

>  <Ligand Efficiency BEI>  (816) 
nan

>  <Ligand Efficiency LE>  (816) 
nan

>  <Ligand Efficiency LLE>  (816) 
nan

>  <Ligand Efficiency SEI>  (816) 
nan

>  <ALogP>  (816) 
3.83

>  <Assay Organism>  (816) 
nan

>  <Assay Tissue ChEMBL ID>  (816) 
nan

>  <Assay Tissue Name>  (816) 
nan

>  <Assay Cell Type>  (816) 
nan

>  <Assay Subcellular Fraction>  (816) 
nan

>  <Organism Tax ID>  (816) 
9606

>  <BAO Format ID>  (816) 
BAO_0000019

>  <Published Type>  (816) 
nan

>  <Published Relation>  (816) 
nan

>  <Published Value>  (816) 
nan

>  <Published Units>  (816) 
nan

>  <Canonical Smiles>  (816) 
Cc1cc(OCC2CCC(C2)C(=O)O)c(NC(=O)Nc3cnc(cn3)C#N)cc1Cl

>  <Data Validity Comment>  (816) 
nan

>  <Document Journal>  (816) 
nan

>  <Document Year>  (816) 
nan

>  <SRC ID>  (816) 
7

>  <UO Units>  (816) 
UO_0000065

>  <Potential Duplicate>  (816) 
False

>  <Class>  (816) 
0

$$$$

     RDKit          2D

 27 30  0  0  0  0  0  0  0  0999 V2000
  -14.5438   -2.9592    0.0000 C   0  0  0  0  0  0  0  0  0  0  0  0
  -13.1172   -2.4957    0.0000 C   0  0  0  0  0  0  0  0  0  0  0  0
  -12.8053   -1.0285    0.0000 C   0  0  0  0  0  0  0  0  0  0  0  0
  -11.3787   -0.5649    0.0000 C   0  0  0  0  0  0  0  0  0  0  0  0
  -10.2640   -1.5686    0.0000 C   0  0  0  0  0  0  0  0  0  0  0  0
  -10.5759   -3.0359    0.0000 C   0  0  0  0  0  0  0  0  0  0  0  0
   -9.4612   -4.0396    0.0000 N   0  0  0  0  0  0  0  0  0  0  0  0
   -8.0346   -3.5760    0.0000 C   0  0  0  0  0  0  0  0  0  0  0  0
   -7.7227   -2.1088    0.0000 O   0  0  0  0  0  0  0  0  0  0  0  0
   -6.9199   -4.5797    0.0000 N   0  0  0  0  0  0  0  0  0  0  0  0
   -5.4933   -4.1162    0.0000 C   0  0  0  0  0  0  0  0  0  0  0  0
   -4.3786   -5.1199    0.0000 C   0  0  0  0  0  0  0  0  0  0  0  0
   -2.9520   -4.6564    0.0000 C   0  0  0  0  0  0  0  0  0  0  0  0
   -2.6401   -3.1891    0.0000 C   0  0  0  0  0  0  0  0  0  0  0  0
   -3.7548   -2.1855    0.0000 C   0  0  0  0  0  0  0  0  0  0  0  0
   -5.1814   -2.6490    0.0000 C   0  0  0  0  0  0  0  0  0  0  0  0
   -1.2135   -2.7256    0.0000 C   0  0  0  0  0  0  0  0  0  0  0  0
    0.0000   -3.6073    0.0000 C   0  0  0  0  0  0  0  0  0  0  0  0
    1.2135   -2.7256    0.0000 O   0  0  0  0  0  0  0  0  0  0  0  0
    0.7500   -1.2990    0.0000 C   0  0  0  0  0  0  0  0  0  0  0  0
    1.5000    0.0000    0.0000 N   0  0  0  0  0  0  0  0  0  0  0  0
    0.7500    1.2990    0.0000 C   0  0  0  0  0  0  0  0  0  0  0  0
   -0.7500    1.2990    0.0000 N   0  0  0  0  0  0  0  0  0  0  0  0
   -1.5000    0.0000    0.0000 C   0  0  0  0  0  0  0  0  0  0  0  0
   -3.0000    0.0000    0.0000 N   0  0  0  0  0  0  0  0  0  0  0  0
   -0.7500   -1.2990    0.0000 C   0  0  0  0  0  0  0  0  0  0  0  0
  -12.0025   -3.4994    0.0000 C   0  0  0  0  0  0  0  0  0  0  0  0
  1  2  1  0
  2  3  2  0
  3  4  1  0
  4  5  2  0
  5  6  1  0
  6  7  1  0
  7  8  1  0
  8  9  2  0
  8 10  1  0
 10 11  1  0
 11 12  2  0
 12 13  1  0
 13 14  2  0
 14 15  1  0
 15 16  2  0
 14 17  1  0
 17 18  2  0
 18 19  1  0
 19 20  1  0
 20 21  2  0
 21 22  1  0
 22 23  2  0
 23 24  1  0
 24 25  1  0
 24 26  2  0
  6 27  2  0
 27  2  1  0
 16 11  1  0
 26 17  1  0
 26 20  1  0
M  END
>  <Molecule>  (817) 
CHEMBL1983963

>  <Standard Type>  (817) 
Ki

>  <Standard Relation>  (817) 
>

>  <Standard Value>  (817) 
1584.89

>  <Standard Units>  (817) 
nM

>  <pChEMBL Value>  (817) 
nan

>  <Comment>  (817) 
inactive

>  <Compound Key>  (817) 
SID103904275

>  <Assay>  (817) 
CHEMBL1963742

>  <Assay Description>  (817) 
PUBCHEM_BIOASSAY: Navigating the Kinome. (Class of assay: other) Panel member name: JAK3

>  <BAO Format>  (817) 
assay format

>  <Target>  (817) 
CHEMBL2148

>  <Target Pref. Name>  (817) 
Tyrosine-protein kinase JAK3

>  <Target Organism>  (817) 
Homo sapiens

>  <Target Type>  (817) 
SINGLE PROTEIN

>  <Document>  (817) 
CHEMBL1201862

>  <Source>  (817) 
PubChem BioAssays

>  <Max Phase>  (817) 
0

>  <#Ro5 Violations>  (817) 
0

>  <Molecular Weight>  (817) 
359.39

>  <Ligand Efficiency BEI>  (817) 
nan

>  <Ligand Efficiency LE>  (817) 
nan

>  <Ligand Efficiency LLE>  (817) 
nan

>  <Ligand Efficiency SEI>  (817) 
nan

>  <ALogP>  (817) 
4.42

>  <Assay Organism>  (817) 
nan

>  <Assay Tissue ChEMBL ID>  (817) 
nan

>  <Assay Tissue Name>  (817) 
nan

>  <Assay Cell Type>  (817) 
nan

>  <Assay Subcellular Fraction>  (817) 
nan

>  <Organism Tax ID>  (817) 
9606

>  <BAO Format ID>  (817) 
BAO_0000019

>  <Published Type>  (817) 
nan

>  <Published Relation>  (817) 
nan

>  <Published Value>  (817) 
nan

>  <Published Units>  (817) 
nan

>  <Canonical Smiles>  (817) 
Cc1cccc(NC(=O)Nc2ccc(cc2)c3coc4ncnc(N)c34)c1

>  <Data Validity Comment>  (817) 
nan

>  <Document Journal>  (817) 
nan

>  <Document Year>  (817) 
nan

>  <SRC ID>  (817) 
7

>  <UO Units>  (817) 
UO_0000065

>  <Potential Duplicate>  (817) 
False

>  <Class>  (817) 
0

$$$$

     RDKit          2D

 26 28  0  0  0  0  0  0  0  0999 V2000
    1.5000   -5.1962    0.0000 F   0  0  0  0  0  0  0  0  0  0  0  0
    0.7500   -3.8971    0.0000 C   0  0  0  0  0  0  0  0  0  0  0  0
    1.5000   -2.5981    0.0000 C   0  0  0  0  0  0  0  0  0  0  0  0
    0.7500   -1.2990    0.0000 C   0  0  0  0  0  0  0  0  0  0  0  0
    1.5000    0.0000    0.0000 N   0  0  0  0  0  0  0  0  0  0  0  0
    0.7500    1.2990    0.0000 C   0  0  0  0  0  0  0  0  0  0  0  0
   -0.7500    1.2990    0.0000 C   0  0  0  0  0  0  0  0  0  0  0  0
   -1.5000    0.0000    0.0000 C   0  0  0  0  0  0  0  0  0  0  0  0
   -3.0000    0.0000    0.0000 N   0  0  0  0  0  0  0  0  0  0  0  0
   -3.7500    1.2990    0.0000 C   0  0  0  0  0  0  0  0  0  0  0  0
   -3.0000    2.5981    0.0000 O   0  0  0  0  0  0  0  0  0  0  0  0
   -5.2500    1.2990    0.0000 N   0  0  0  0  0  0  0  0  0  0  0  0
   -6.0000    2.5981    0.0000 C   0  0  0  0  0  0  0  0  0  0  0  0
   -5.2500    3.8971    0.0000 C   0  0  0  0  0  0  0  0  0  0  0  0
   -6.0000    5.1962    0.0000 C   0  0  0  0  0  0  0  0  0  0  0  0
   -7.5000    5.1962    0.0000 C   0  0  0  0  0  0  0  0  0  0  0  0
   -8.2500    3.8971    0.0000 C   0  0  0  0  0  0  0  0  0  0  0  0
   -7.5000    2.5981    0.0000 N   0  0  0  0  0  0  0  0  0  0  0  0
   -9.7500    3.8971    0.0000 C   0  0  0  0  0  0  0  0  0  0  0  0
  -11.2500    3.8971    0.0000 F   0  0  0  0  0  0  0  0  0  0  0  0
   -9.7500    5.3971    0.0000 F   0  0  0  0  0  0  0  0  0  0  0  0
   -9.7500    2.3971    0.0000 F   0  0  0  0  0  0  0  0  0  0  0  0
   -0.7500   -1.2990    0.0000 C   0  0  0  0  0  0  0  0  0  0  0  0
   -1.5000   -2.5981    0.0000 C   0  0  0  0  0  0  0  0  0  0  0  0
   -0.7500   -3.8971    0.0000 C   0  0  0  0  0  0  0  0  0  0  0  0
   -1.5000   -5.1962    0.0000 F   0  0  0  0  0  0  0  0  0  0  0  0
  1  2  1  0
  2  3  2  0
  3  4  1  0
  4  5  2  0
  5  6  1  0
  6  7  2  0
  7  8  1  0
  8  9  1  0
  9 10  1  0
 10 11  2  0
 10 12  1  0
 12 13  1  0
 13 14  2  0
 14 15  1  0
 15 16  2  0
 16 17  1  0
 17 18  2  0
 17 19  1  0
 19 20  1  0
 19 21  1  0
 19 22  1  0
  8 23  2  0
 23 24  1  0
 24 25  2  0
 25 26  1  0
 25  2  1  0
 23  4  1  0
 18 13  1  0
M  END
>  <Molecule>  (818) 
CHEMBL1981792

>  <Standard Type>  (818) 
Ki

>  <Standard Relation>  (818) 
=

>  <Standard Value>  (818) 
3981.07

>  <Standard Units>  (818) 
nM

>  <pChEMBL Value>  (818) 
5.4

>  <Comment>  (818) 
active

>  <Compound Key>  (818) 
SID103904880

>  <Assay>  (818) 
CHEMBL1963742

>  <Assay Description>  (818) 
PUBCHEM_BIOASSAY: Navigating the Kinome. (Class of assay: other) Panel member name: JAK3

>  <BAO Format>  (818) 
assay format

>  <Target>  (818) 
CHEMBL2148

>  <Target Pref. Name>  (818) 
Tyrosine-protein kinase JAK3

>  <Target Organism>  (818) 
Homo sapiens

>  <Target Type>  (818) 
SINGLE PROTEIN

>  <Document>  (818) 
CHEMBL1201862

>  <Source>  (818) 
PubChem BioAssays

>  <Max Phase>  (818) 
0

>  <#Ro5 Violations>  (818) 
0

>  <Molecular Weight>  (818) 
368.27

>  <Ligand Efficiency BEI>  (818) 
nan

>  <Ligand Efficiency LE>  (818) 
nan

>  <Ligand Efficiency LLE>  (818) 
nan

>  <Ligand Efficiency SEI>  (818) 
nan

>  <ALogP>  (818) 
4.57

>  <Assay Organism>  (818) 
nan

>  <Assay Tissue ChEMBL ID>  (818) 
nan

>  <Assay Tissue Name>  (818) 
nan

>  <Assay Cell Type>  (818) 
nan

>  <Assay Subcellular Fraction>  (818) 
nan

>  <Organism Tax ID>  (818) 
9606

>  <BAO Format ID>  (818) 
BAO_0000019

>  <Published Type>  (818) 
nan

>  <Published Relation>  (818) 
nan

>  <Published Value>  (818) 
nan

>  <Published Units>  (818) 
nan

>  <Canonical Smiles>  (818) 
Fc1cc2nccc(NC(=O)Nc3cccc(n3)C(F)(F)F)c2cc1F

>  <Data Validity Comment>  (818) 
nan

>  <Document Journal>  (818) 
nan

>  <Document Year>  (818) 
nan

>  <SRC ID>  (818) 
7

>  <UO Units>  (818) 
UO_0000065

>  <Potential Duplicate>  (818) 
False

>  <Class>  (818) 
1

$$$$

     RDKit          2D

 32 37  0  0  0  0  0  0  0  0999 V2000
    2.5701   -9.7393    0.0000 C   0  0  0  0  0  0  0  0  0  0  0  0
    1.6261   -8.5736    0.0000 C   0  0  0  0  0  0  0  0  0  0  0  0
    0.4604   -9.5176    0.0000 O   0  0  0  0  0  0  0  0  0  0  0  0
    0.6821   -7.4079    0.0000 C   0  0  0  0  0  0  0  0  0  0  0  0
    1.8478   -6.4639    0.0000 C   0  0  0  0  0  0  0  0  0  0  0  0
    2.7918   -7.6296    0.0000 C   0  0  0  0  0  0  0  0  0  0  0  0
    2.0046   -4.9721    0.0000 C   0  0  0  0  0  0  0  0  0  0  0  0
    0.8899   -3.9684    0.0000 N   0  0  0  0  0  0  0  0  0  0  0  0
    1.5000   -2.5981    0.0000 C   0  0  0  0  0  0  0  0  0  0  0  0
    0.7500   -1.2990    0.0000 C   0  0  0  0  0  0  0  0  0  0  0  0
    1.5000    0.0000    0.0000 C   0  0  0  0  0  0  0  0  0  0  0  0
    0.7500    1.2990    0.0000 C   0  0  0  0  0  0  0  0  0  0  0  0
   -0.7500    1.2990    0.0000 C   0  0  0  0  0  0  0  0  0  0  0  0
   -1.5000    2.5981    0.0000 C   0  0  0  0  0  0  0  0  0  0  0  0
   -3.0000    2.5981    0.0000 C   0  0  0  0  0  0  0  0  0  0  0  0
   -3.7500    1.2990    0.0000 C   0  0  0  0  0  0  0  0  0  0  0  0
   -3.0000    0.0000    0.0000 N   0  0  0  0  0  0  0  0  0  0  0  0
   -1.5000    0.0000    0.0000 C   0  0  0  0  0  0  0  0  0  0  0  0
   -0.7500   -1.2990    0.0000 C   0  0  0  0  0  0  0  0  0  0  0  0
   -5.2500    1.2990    0.0000 C   0  0  0  0  0  0  0  0  0  0  0  0
   -6.0000    2.5981    0.0000 C   0  0  0  0  0  0  0  0  0  0  0  0
   -7.5000    2.5981    0.0000 C   0  0  0  0  0  0  0  0  0  0  0  0
   -8.2500    1.2990    0.0000 C   0  0  0  0  0  0  0  0  0  0  0  0
   -7.5000    0.0000    0.0000 C   0  0  0  0  0  0  0  0  0  0  0  0
   -6.0000    0.0000    0.0000 C   0  0  0  0  0  0  0  0  0  0  0  0
    2.9918   -2.7549    0.0000 C   0  0  0  0  0  0  0  0  0  0  0  0
    4.1065   -1.7512    0.0000 C   0  0  0  0  0  0  0  0  0  0  0  0
    3.7946   -0.2840    0.0000 N   0  0  0  0  0  0  0  0  0  0  0  0
    5.5331   -2.2147    0.0000 N   0  0  0  0  0  0  0  0  0  0  0  0
    5.8450   -3.6819    0.0000 C   0  0  0  0  0  0  0  0  0  0  0  0
    4.7302   -4.6856    0.0000 C   0  0  0  0  0  0  0  0  0  0  0  0
    3.3037   -4.2221    0.0000 N   0  0  0  0  0  0  0  0  0  0  0  0
  1  2  1  0
  2  3  1  0
  2  4  1  0
  4  5  1  0
  5  6  1  0
  5  7  1  0
  7  8  2  0
  8  9  1  0
  9 10  1  0
 10 11  2  0
 11 12  1  0
 12 13  2  0
 13 14  1  0
 14 15  2  0
 15 16  1  0
 16 17  2  0
 17 18  1  0
 18 19  2  0
 16 20  1  0
 20 21  2  0
 21 22  1  0
 22 23  2  0
 23 24  1  0
 24 25  2  0
  9 26  2  0
 26 27  1  0
 27 28  1  0
 27 29  2  0
 29 30  1  0
 30 31  2  0
 31 32  1  0
  6  2  1  0
 32  7  1  0
 19 10  1  0
 18 13  1  0
 25 20  1  0
 32 26  1  0
M  END
>  <Molecule>  (819) 
CHEMBL1996234

>  <Standard Type>  (819) 
Ki

>  <Standard Relation>  (819) 
>

>  <Standard Value>  (819) 
1584.89

>  <Standard Units>  (819) 
nM

>  <pChEMBL Value>  (819) 
nan

>  <Comment>  (819) 
inactive

>  <Compound Key>  (819) 
SID103905463

>  <Assay>  (819) 
CHEMBL1963742

>  <Assay Description>  (819) 
PUBCHEM_BIOASSAY: Navigating the Kinome. (Class of assay: other) Panel member name: JAK3

>  <BAO Format>  (819) 
assay format

>  <Target>  (819) 
CHEMBL2148

>  <Target Pref. Name>  (819) 
Tyrosine-protein kinase JAK3

>  <Target Organism>  (819) 
Homo sapiens

>  <Target Type>  (819) 
SINGLE PROTEIN

>  <Document>  (819) 
CHEMBL1201862

>  <Source>  (819) 
PubChem BioAssays

>  <Max Phase>  (819) 
0

>  <#Ro5 Violations>  (819) 
0

>  <Molecular Weight>  (819) 
421.5

>  <Ligand Efficiency BEI>  (819) 
nan

>  <Ligand Efficiency LE>  (819) 
nan

>  <Ligand Efficiency LLE>  (819) 
nan

>  <Ligand Efficiency SEI>  (819) 
nan

>  <ALogP>  (819) 
4.82

>  <Assay Organism>  (819) 
nan

>  <Assay Tissue ChEMBL ID>  (819) 
nan

>  <Assay Tissue Name>  (819) 
nan

>  <Assay Cell Type>  (819) 
nan

>  <Assay Subcellular Fraction>  (819) 
nan

>  <Organism Tax ID>  (819) 
9606

>  <BAO Format ID>  (819) 
BAO_0000019

>  <Published Type>  (819) 
nan

>  <Published Relation>  (819) 
nan

>  <Published Value>  (819) 
nan

>  <Published Units>  (819) 
nan

>  <Canonical Smiles>  (819) 
CC1(O)CC(C1)c2nc(c3ccc4ccc(nc4c3)c5ccccc5)c6c(N)nccn26

>  <Data Validity Comment>  (819) 
nan

>  <Document Journal>  (819) 
nan

>  <Document Year>  (819) 
nan

>  <SRC ID>  (819) 
7

>  <UO Units>  (819) 
UO_0000065

>  <Potential Duplicate>  (819) 
False

>  <Class>  (819) 
0

$$$$

     RDKit          2D

 44 50  0  0  0  0  0  0  0  0999 V2000
  -12.3143   -4.9666    0.0000 C   0  0  0  0  0  0  0  0  0  0  0  0
  -11.1996   -5.9703    0.0000 C   0  0  0  0  0  0  0  0  0  0  0  0
  -11.5115   -7.4375    0.0000 O   0  0  0  0  0  0  0  0  0  0  0  0
   -9.7730   -5.5068    0.0000 N   0  0  0  0  0  0  0  0  0  0  0  0
   -9.4612   -4.0396    0.0000 C   0  0  0  0  0  0  0  0  0  0  0  0
   -8.0346   -3.5760    0.0000 C   0  0  0  0  0  0  0  0  0  0  0  0
   -6.9199   -4.5797    0.0000 N   0  0  0  0  0  0  0  0  0  0  0  0
   -7.2317   -6.0469    0.0000 C   0  0  0  0  0  0  0  0  0  0  0  0
   -8.6583   -6.5105    0.0000 C   0  0  0  0  0  0  0  0  0  0  0  0
   -5.4933   -4.1162    0.0000 C   0  0  0  0  0  0  0  0  0  0  0  0
   -4.3786   -5.1199    0.0000 C   0  0  0  0  0  0  0  0  0  0  0  0
   -2.9520   -4.6564    0.0000 C   0  0  0  0  0  0  0  0  0  0  0  0
   -2.6401   -3.1891    0.0000 C   0  0  0  0  0  0  0  0  0  0  0  0
   -3.7548   -2.1855    0.0000 C   0  0  0  0  0  0  0  0  0  0  0  0
   -5.1814   -2.6490    0.0000 C   0  0  0  0  0  0  0  0  0  0  0  0
   -1.2135   -2.7256    0.0000 N   0  0  0  0  0  0  0  0  0  0  0  0
    0.0000   -3.6073    0.0000 N   0  0  0  0  0  0  0  0  0  0  0  0
    1.2135   -2.7256    0.0000 C   0  0  0  0  0  0  0  0  0  0  0  0
    2.6401   -3.1891    0.0000 C   0  0  0  0  0  0  0  0  0  0  0  0
    2.9520   -4.6564    0.0000 C   0  0  0  0  0  0  0  0  0  0  0  0
    4.3786   -5.1199    0.0000 C   0  0  0  0  0  0  0  0  0  0  0  0
    5.4933   -4.1162    0.0000 C   0  0  0  0  0  0  0  0  0  0  0  0
    6.9199   -4.5797    0.0000 N   0  0  0  0  0  0  0  0  0  0  0  0
    7.2317   -6.0469    0.0000 C   0  0  0  0  0  0  0  0  0  0  0  0
    6.1170   -7.0506    0.0000 O   0  0  0  0  0  0  0  0  0  0  0  0
    8.6583   -6.5105    0.0000 C   0  0  0  0  0  0  0  0  0  0  0  0
    9.1218   -7.9371    0.0000 C   0  0  0  0  0  0  0  0  0  0  0  0
   10.6218   -7.9371    0.0000 C   0  0  0  0  0  0  0  0  0  0  0  0
   11.6255   -9.0518    0.0000 C   0  0  0  0  0  0  0  0  0  0  0  0
   13.0928   -8.7399    0.0000 C   0  0  0  0  0  0  0  0  0  0  0  0
   13.5563   -7.3133    0.0000 C   0  0  0  0  0  0  0  0  0  0  0  0
   12.5526   -6.1986    0.0000 C   0  0  0  0  0  0  0  0  0  0  0  0
   11.0854   -6.5105    0.0000 C   0  0  0  0  0  0  0  0  0  0  0  0
    9.8718   -5.6288    0.0000 N   0  0  0  0  0  0  0  0  0  0  0  0
    9.8718   -4.1288    0.0000 C   0  0  0  0  0  0  0  0  0  0  0  0
    5.1814   -2.6490    0.0000 C   0  0  0  0  0  0  0  0  0  0  0  0
    3.7548   -2.1855    0.0000 C   0  0  0  0  0  0  0  0  0  0  0  0
    0.7500   -1.2990    0.0000 C   0  0  0  0  0  0  0  0  0  0  0  0
    1.5000    0.0000    0.0000 C   0  0  0  0  0  0  0  0  0  0  0  0
    3.0000    0.0000    0.0000 N   0  0  0  0  0  0  0  0  0  0  0  0
    0.7500    1.2990    0.0000 N   0  0  0  0  0  0  0  0  0  0  0  0
   -0.7500    1.2990    0.0000 C   0  0  0  0  0  0  0  0  0  0  0  0
   -1.5000    0.0000    0.0000 N   0  0  0  0  0  0  0  0  0  0  0  0
   -0.7500   -1.2990    0.0000 C   0  0  0  0  0  0  0  0  0  0  0  0
  1  2  1  0
  2  3  2  0
  2  4  1  0
  4  5  1  0
  5  6  1  0
  6  7  1  0
  7  8  1  0
  8  9  1  0
  7 10  1  0
 10 11  1  0
 11 12  1  0
 12 13  1  0
 13 14  1  0
 14 15  1  0
 13 16  1  0
 16 17  1  0
 17 18  2  0
 18 19  1  0
 19 20  2  0
 20 21  1  0
 21 22  2  0
 22 23  1  0
 23 24  1  0
 24 25  2  0
 24 26  1  0
 26 27  2  0
 27 28  1  0
 28 29  2  0
 29 30  1  0
 30 31  2  0
 31 32  1  0
 32 33  2  0
 33 34  1  0
 34 35  1  0
 22 36  1  0
 36 37  2  0
 18 38  1  0
 38 39  2  0
 39 40  1  0
 39 41  1  0
 41 42  2  0
 42 43  1  0
 43 44  2  0
  9  4  1  0
 15 10  1  0
 44 16  1  0
 37 19  1  0
 34 26  1  0
 33 28  1  0
 44 38  1  0
M  END
>  <Molecule>  (820) 
CHEMBL1972584

>  <Standard Type>  (820) 
Ki

>  <Standard Relation>  (820) 
>

>  <Standard Value>  (820) 
1584.89

>  <Standard Units>  (820) 
nM

>  <pChEMBL Value>  (820) 
nan

>  <Comment>  (820) 
inactive

>  <Compound Key>  (820) 
SID103904788

>  <Assay>  (820) 
CHEMBL1963742

>  <Assay Description>  (820) 
PUBCHEM_BIOASSAY: Navigating the Kinome. (Class of assay: other) Panel member name: JAK3

>  <BAO Format>  (820) 
assay format

>  <Target>  (820) 
CHEMBL2148

>  <Target Pref. Name>  (820) 
Tyrosine-protein kinase JAK3

>  <Target Organism>  (820) 
Homo sapiens

>  <Target Type>  (820) 
SINGLE PROTEIN

>  <Document>  (820) 
CHEMBL1201862

>  <Source>  (820) 
PubChem BioAssays

>  <Max Phase>  (820) 
0

>  <#Ro5 Violations>  (820) 
1

>  <Molecular Weight>  (820) 
591.72

>  <Ligand Efficiency BEI>  (820) 
nan

>  <Ligand Efficiency LE>  (820) 
nan

>  <Ligand Efficiency LLE>  (820) 
nan

>  <Ligand Efficiency SEI>  (820) 
nan

>  <ALogP>  (820) 
4.47

>  <Assay Organism>  (820) 
nan

>  <Assay Tissue ChEMBL ID>  (820) 
nan

>  <Assay Tissue Name>  (820) 
nan

>  <Assay Cell Type>  (820) 
nan

>  <Assay Subcellular Fraction>  (820) 
nan

>  <Organism Tax ID>  (820) 
9606

>  <BAO Format ID>  (820) 
BAO_0000019

>  <Published Type>  (820) 
nan

>  <Published Relation>  (820) 
nan

>  <Published Value>  (820) 
nan

>  <Published Units>  (820) 
nan

>  <Canonical Smiles>  (820) 
CC(=O)N1CCN(CC1)C2CCC(CC2)n3nc(c4ccc(NC(=O)c5cc6ccccc6n5C)cc4)c7c(N)ncnc37

>  <Data Validity Comment>  (820) 
nan

>  <Document Journal>  (820) 
nan

>  <Document Year>  (820) 
nan

>  <SRC ID>  (820) 
7

>  <UO Units>  (820) 
UO_0000065

>  <Potential Duplicate>  (820) 
False

>  <Class>  (820) 
0

$$$$

     RDKit          2D

 16 18  0  0  0  0  0  0  0  0999 V2000
    3.0000    0.0000    0.0000 O   0  0  0  0  0  0  0  0  0  0  0  0
    1.5000    0.0000    0.0000 C   0  0  0  0  0  0  0  0  0  0  0  0
    0.7500   -1.2990    0.0000 N   0  0  0  0  0  0  0  0  0  0  0  0
   -0.7500   -1.2990    0.0000 C   0  0  0  0  0  0  0  0  0  0  0  0
   -1.5000    0.0000    0.0000 C   0  0  0  0  0  0  0  0  0  0  0  0
   -0.7500    1.2990    0.0000 C   0  0  0  0  0  0  0  0  0  0  0  0
   -1.2135    2.7256    0.0000 N   0  0  0  0  0  0  0  0  0  0  0  0
   -0.0000    3.6073    0.0000 C   0  0  0  0  0  0  0  0  0  0  0  0
    1.2135    2.7256    0.0000 C   0  0  0  0  0  0  0  0  0  0  0  0
    0.7500    1.2990    0.0000 C   0  0  0  0  0  0  0  0  0  0  0  0
   -0.0000    5.1073    0.0000 C   0  0  0  0  0  0  0  0  0  0  0  0
    1.2990    5.8573    0.0000 C   0  0  0  0  0  0  0  0  0  0  0  0
    1.2990    7.3573    0.0000 C   0  0  0  0  0  0  0  0  0  0  0  0
    0.0000    8.1073    0.0000 N   0  0  0  0  0  0  0  0  0  0  0  0
   -1.2990    7.3573    0.0000 C   0  0  0  0  0  0  0  0  0  0  0  0
   -1.2990    5.8573    0.0000 C   0  0  0  0  0  0  0  0  0  0  0  0
  1  2  2  0
  2  3  1  0
  3  4  1  0
  4  5  1  0
  5  6  1  0
  6  7  1  0
  7  8  1  0
  8  9  2  0
  9 10  1  0
  8 11  1  0
 11 12  2  0
 12 13  1  0
 13 14  2  0
 14 15  1  0
 15 16  2  0
 10  2  1  0
 10  6  2  0
 16 11  1  0
M  END
>  <Molecule>  (821) 
CHEMBL225519

>  <Standard Type>  (821) 
Ki

>  <Standard Relation>  (821) 
=

>  <Standard Value>  (821) 
2511.89

>  <Standard Units>  (821) 
nM

>  <pChEMBL Value>  (821) 
5.6

>  <Comment>  (821) 
active

>  <Compound Key>  (821) 
SID103905167

>  <Assay>  (821) 
CHEMBL1963742

>  <Assay Description>  (821) 
PUBCHEM_BIOASSAY: Navigating the Kinome. (Class of assay: other) Panel member name: JAK3

>  <BAO Format>  (821) 
assay format

>  <Target>  (821) 
CHEMBL2148

>  <Target Pref. Name>  (821) 
Tyrosine-protein kinase JAK3

>  <Target Organism>  (821) 
Homo sapiens

>  <Target Type>  (821) 
SINGLE PROTEIN

>  <Document>  (821) 
CHEMBL1201862

>  <Source>  (821) 
PubChem BioAssays

>  <Max Phase>  (821) 
0

>  <#Ro5 Violations>  (821) 
0

>  <Molecular Weight>  (821) 
213.24

>  <Ligand Efficiency BEI>  (821) 
nan

>  <Ligand Efficiency LE>  (821) 
nan

>  <Ligand Efficiency LLE>  (821) 
nan

>  <Ligand Efficiency SEI>  (821) 
nan

>  <ALogP>  (821) 
1.36

>  <Assay Organism>  (821) 
nan

>  <Assay Tissue ChEMBL ID>  (821) 
nan

>  <Assay Tissue Name>  (821) 
nan

>  <Assay Cell Type>  (821) 
nan

>  <Assay Subcellular Fraction>  (821) 
nan

>  <Organism Tax ID>  (821) 
9606

>  <BAO Format ID>  (821) 
BAO_0000019

>  <Published Type>  (821) 
nan

>  <Published Relation>  (821) 
nan

>  <Published Value>  (821) 
nan

>  <Published Units>  (821) 
nan

>  <Canonical Smiles>  (821) 
O=C1NCCc2[nH]c(cc12)c3ccncc3

>  <Data Validity Comment>  (821) 
nan

>  <Document Journal>  (821) 
nan

>  <Document Year>  (821) 
nan

>  <SRC ID>  (821) 
7

>  <UO Units>  (821) 
UO_0000065

>  <Potential Duplicate>  (821) 
False

>  <Class>  (821) 
1

$$$$

     RDKit          2D

 17 19  0  0  0  0  0  0  0  0999 V2000
   -5.2500   -6.4952    0.0000 C   0  0  0  0  0  0  0  0  0  0  0  0
   -3.7500   -6.4952    0.0000 S   0  0  0  0  0  0  0  0  0  0  0  0
   -3.0000   -5.1962    0.0000 C   0  0  0  0  0  0  0  0  0  0  0  0
   -3.7500   -3.8971    0.0000 C   0  0  0  0  0  0  0  0  0  0  0  0
   -3.0000   -2.5981    0.0000 N   0  0  0  0  0  0  0  0  0  0  0  0
   -1.5000   -2.5981    0.0000 C   0  0  0  0  0  0  0  0  0  0  0  0
   -0.7500   -3.8971    0.0000 C   0  0  0  0  0  0  0  0  0  0  0  0
    0.7500   -3.8971    0.0000 C   0  0  0  0  0  0  0  0  0  0  0  0
    1.5000   -2.5981    0.0000 C   0  0  0  0  0  0  0  0  0  0  0  0
    0.7500   -1.2990    0.0000 C   0  0  0  0  0  0  0  0  0  0  0  0
    1.5000    0.0000    0.0000 C   0  0  0  0  0  0  0  0  0  0  0  0
    0.7500    1.2990    0.0000 N   0  0  0  0  0  0  0  0  0  0  0  0
   -0.7500    1.2990    0.0000 C   0  0  0  0  0  0  0  0  0  0  0  0
   -1.5000    0.0000    0.0000 C   0  0  0  0  0  0  0  0  0  0  0  0
   -0.7500   -1.2990    0.0000 C   0  0  0  0  0  0  0  0  0  0  0  0
   -1.5000   -5.1962    0.0000 C   0  0  0  0  0  0  0  0  0  0  0  0
   -0.7500   -6.4952    0.0000 O   0  0  0  0  0  0  0  0  0  0  0  0
  1  2  1  0
  2  3  1  0
  3  4  2  0
  4  5  1  0
  5  6  2  0
  6  7  1  0
  7  8  1  0
  8  9  2  0
  9 10  1  0
 10 11  2  0
 11 12  1  0
 12 13  2  0
 13 14  1  0
 14 15  2  0
  7 16  2  0
 16 17  1  0
 16  3  1  0
 15  6  1  0
 15 10  1  0
M  END
>  <Molecule>  (822) 
CHEMBL2006933

>  <Standard Type>  (822) 
Ki

>  <Standard Relation>  (822) 
>

>  <Standard Value>  (822) 
1584.89

>  <Standard Units>  (822) 
nM

>  <pChEMBL Value>  (822) 
nan

>  <Comment>  (822) 
inactive

>  <Compound Key>  (822) 
SID103905576

>  <Assay>  (822) 
CHEMBL1963742

>  <Assay Description>  (822) 
PUBCHEM_BIOASSAY: Navigating the Kinome. (Class of assay: other) Panel member name: JAK3

>  <BAO Format>  (822) 
assay format

>  <Target>  (822) 
CHEMBL2148

>  <Target Pref. Name>  (822) 
Tyrosine-protein kinase JAK3

>  <Target Organism>  (822) 
Homo sapiens

>  <Target Type>  (822) 
SINGLE PROTEIN

>  <Document>  (822) 
CHEMBL1201862

>  <Source>  (822) 
PubChem BioAssays

>  <Max Phase>  (822) 
0

>  <#Ro5 Violations>  (822) 
0

>  <Molecular Weight>  (822) 
242.3

>  <Ligand Efficiency BEI>  (822) 
nan

>  <Ligand Efficiency LE>  (822) 
nan

>  <Ligand Efficiency LLE>  (822) 
nan

>  <Ligand Efficiency SEI>  (822) 
nan

>  <ALogP>  (822) 
3.21

>  <Assay Organism>  (822) 
nan

>  <Assay Tissue ChEMBL ID>  (822) 
nan

>  <Assay Tissue Name>  (822) 
nan

>  <Assay Cell Type>  (822) 
nan

>  <Assay Subcellular Fraction>  (822) 
nan

>  <Organism Tax ID>  (822) 
9606

>  <BAO Format ID>  (822) 
BAO_0000019

>  <Published Type>  (822) 
nan

>  <Published Relation>  (822) 
nan

>  <Published Value>  (822) 
nan

>  <Published Units>  (822) 
nan

>  <Canonical Smiles>  (822) 
CSc1cnc2c(ccc3cnccc23)c1O

>  <Data Validity Comment>  (822) 
nan

>  <Document Journal>  (822) 
nan

>  <Document Year>  (822) 
nan

>  <SRC ID>  (822) 
7

>  <UO Units>  (822) 
UO_0000065

>  <Potential Duplicate>  (822) 
False

>  <Class>  (822) 
0

$$$$

     RDKit          2D

 20 23  0  0  0  0  0  0  0  0999 V2000
   -2.6401   -3.1891    0.0000 C   0  0  0  0  0  0  0  0  0  0  0  0
   -1.2135   -2.7256    0.0000 N   0  0  0  0  0  0  0  0  0  0  0  0
   -0.0000   -3.6073    0.0000 C   0  0  0  0  0  0  0  0  0  0  0  0
    1.2135   -2.7256    0.0000 C   0  0  0  0  0  0  0  0  0  0  0  0
    2.6401   -3.1891    0.0000 C   0  0  0  0  0  0  0  0  0  0  0  0
    3.1036   -4.6157    0.0000 C   0  0  0  0  0  0  0  0  0  0  0  0
    4.6036   -4.6157    0.0000 C   0  0  0  0  0  0  0  0  0  0  0  0
    5.6073   -5.7305    0.0000 N   0  0  0  0  0  0  0  0  0  0  0  0
    7.0746   -5.4186    0.0000 C   0  0  0  0  0  0  0  0  0  0  0  0
    8.0782   -6.5333    0.0000 Br  0  0  0  0  0  0  0  0  0  0  0  0
    7.5381   -3.9920    0.0000 C   0  0  0  0  0  0  0  0  0  0  0  0
    6.5344   -2.8773    0.0000 N   0  0  0  0  0  0  0  0  0  0  0  0
    5.0672   -3.1891    0.0000 C   0  0  0  0  0  0  0  0  0  0  0  0
    3.8536   -2.3075    0.0000 N   0  0  0  0  0  0  0  0  0  0  0  0
    0.7500   -1.2990    0.0000 C   0  0  0  0  0  0  0  0  0  0  0  0
    1.5000    0.0000    0.0000 C   0  0  0  0  0  0  0  0  0  0  0  0
    0.7500    1.2990    0.0000 C   0  0  0  0  0  0  0  0  0  0  0  0
   -0.7500    1.2990    0.0000 C   0  0  0  0  0  0  0  0  0  0  0  0
   -1.5000    0.0000    0.0000 C   0  0  0  0  0  0  0  0  0  0  0  0
   -0.7500   -1.2990    0.0000 C   0  0  0  0  0  0  0  0  0  0  0  0
  1  2  1  0
  2  3  1  0
  3  4  2  0
  4  5  1  0
  5  6  2  0
  6  7  1  0
  7  8  2  0
  8  9  1  0
  9 10  1  0
  9 11  2  0
 11 12  1  0
 12 13  2  0
 13 14  1  0
  4 15  1  0
 15 16  2  0
 16 17  1  0
 17 18  2  0
 18 19  1  0
 19 20  2  0
 20  2  1  0
 14  5  1  0
 13  7  1  0
 20 15  1  0
M  END
>  <Molecule>  (823) 
CHEMBL1978167

>  <Standard Type>  (823) 
Ki

>  <Standard Relation>  (823) 
>

>  <Standard Value>  (823) 
5011.87

>  <Standard Units>  (823) 
nM

>  <pChEMBL Value>  (823) 
nan

>  <Comment>  (823) 
inactive

>  <Compound Key>  (823) 
SID103904863

>  <Assay>  (823) 
CHEMBL1963742

>  <Assay Description>  (823) 
PUBCHEM_BIOASSAY: Navigating the Kinome. (Class of assay: other) Panel member name: JAK3

>  <BAO Format>  (823) 
assay format

>  <Target>  (823) 
CHEMBL2148

>  <Target Pref. Name>  (823) 
Tyrosine-protein kinase JAK3

>  <Target Organism>  (823) 
Homo sapiens

>  <Target Type>  (823) 
SINGLE PROTEIN

>  <Document>  (823) 
CHEMBL1201862

>  <Source>  (823) 
PubChem BioAssays

>  <Max Phase>  (823) 
0

>  <#Ro5 Violations>  (823) 
0

>  <Molecular Weight>  (823) 
327.19

>  <Ligand Efficiency BEI>  (823) 
nan

>  <Ligand Efficiency LE>  (823) 
nan

>  <Ligand Efficiency LLE>  (823) 
nan

>  <Ligand Efficiency SEI>  (823) 
nan

>  <ALogP>  (823) 
3.88

>  <Assay Organism>  (823) 
nan

>  <Assay Tissue ChEMBL ID>  (823) 
nan

>  <Assay Tissue Name>  (823) 
nan

>  <Assay Cell Type>  (823) 
nan

>  <Assay Subcellular Fraction>  (823) 
nan

>  <Organism Tax ID>  (823) 
9606

>  <BAO Format ID>  (823) 
BAO_0000019

>  <Published Type>  (823) 
nan

>  <Published Relation>  (823) 
nan

>  <Published Value>  (823) 
nan

>  <Published Units>  (823) 
nan

>  <Canonical Smiles>  (823) 
Cn1cc(c2cc3nc(Br)cnc3[nH]2)c4ccccc14

>  <Data Validity Comment>  (823) 
nan

>  <Document Journal>  (823) 
nan

>  <Document Year>  (823) 
nan

>  <SRC ID>  (823) 
7

>  <UO Units>  (823) 
UO_0000065

>  <Potential Duplicate>  (823) 
False

>  <Class>  (823) 
0

$$$$

     RDKit          2D

 20 22  0  0  0  0  0  0  0  0999 V2000
   -5.7221   -1.8037    0.0000 N   0  0  0  0  0  0  0  0  0  0  0  0
   -4.4231   -2.5537    0.0000 C   0  0  0  0  0  0  0  0  0  0  0  0
   -4.4231   -4.0537    0.0000 O   0  0  0  0  0  0  0  0  0  0  0  0
   -3.1240   -1.8037    0.0000 C   0  0  0  0  0  0  0  0  0  0  0  0
   -1.7537   -2.4138    0.0000 C   0  0  0  0  0  0  0  0  0  0  0  0
   -0.7500   -1.2990    0.0000 C   0  0  0  0  0  0  0  0  0  0  0  0
    0.7500   -1.2990    0.0000 C   0  0  0  0  0  0  0  0  0  0  0  0
    1.5000   -2.5981    0.0000 O   0  0  0  0  0  0  0  0  0  0  0  0
    3.0000   -2.5981    0.0000 C   0  0  0  0  0  0  0  0  0  0  0  0
    3.7500   -3.8971    0.0000 C   0  0  0  0  0  0  0  0  0  0  0  0
    5.2500   -3.8971    0.0000 C   0  0  0  0  0  0  0  0  0  0  0  0
    6.0000   -2.5981    0.0000 C   0  0  0  0  0  0  0  0  0  0  0  0
    7.5000   -2.5981    0.0000 Br  0  0  0  0  0  0  0  0  0  0  0  0
    5.2500   -1.2990    0.0000 C   0  0  0  0  0  0  0  0  0  0  0  0
    3.7500   -1.2990    0.0000 C   0  0  0  0  0  0  0  0  0  0  0  0
    1.5000    0.0000    0.0000 C   0  0  0  0  0  0  0  0  0  0  0  0
    0.7500    1.2990    0.0000 N   0  0  0  0  0  0  0  0  0  0  0  0
   -0.7500    1.2990    0.0000 C   0  0  0  0  0  0  0  0  0  0  0  0
   -1.5000    0.0000    0.0000 C   0  0  0  0  0  0  0  0  0  0  0  0
   -2.9672   -0.3119    0.0000 S   0  0  0  0  0  0  0  0  0  0  0  0
  1  2  1  0
  2  3  2  0
  2  4  1  0
  4  5  2  0
  5  6  1  0
  6  7  2  0
  7  8  1  0
  8  9  1  0
  9 10  2  0
 10 11  1  0
 11 12  2  0
 12 13  1  0
 12 14  1  0
 14 15  2  0
  7 16  1  0
 16 17  2  0
 17 18  1  0
 18 19  2  0
 19 20  1  0
 20  4  1  0
 19  6  1  0
 15  9  1  0
M  END
>  <Molecule>  (824) 
CHEMBL116070

>  <Standard Type>  (824) 
Ki

>  <Standard Relation>  (824) 
>

>  <Standard Value>  (824) 
1584.89

>  <Standard Units>  (824) 
nM

>  <pChEMBL Value>  (824) 
nan

>  <Comment>  (824) 
inactive

>  <Compound Key>  (824) 
SID103905046

>  <Assay>  (824) 
CHEMBL1963742

>  <Assay Description>  (824) 
PUBCHEM_BIOASSAY: Navigating the Kinome. (Class of assay: other) Panel member name: JAK3

>  <BAO Format>  (824) 
assay format

>  <Target>  (824) 
CHEMBL2148

>  <Target Pref. Name>  (824) 
Tyrosine-protein kinase JAK3

>  <Target Organism>  (824) 
Homo sapiens

>  <Target Type>  (824) 
SINGLE PROTEIN

>  <Document>  (824) 
CHEMBL1201862

>  <Source>  (824) 
PubChem BioAssays

>  <Max Phase>  (824) 
0

>  <#Ro5 Violations>  (824) 
0

>  <Molecular Weight>  (824) 
349.21

>  <Ligand Efficiency BEI>  (824) 
nan

>  <Ligand Efficiency LE>  (824) 
nan

>  <Ligand Efficiency LLE>  (824) 
nan

>  <Ligand Efficiency SEI>  (824) 
nan

>  <ALogP>  (824) 
3.95

>  <Assay Organism>  (824) 
nan

>  <Assay Tissue ChEMBL ID>  (824) 
nan

>  <Assay Tissue Name>  (824) 
nan

>  <Assay Cell Type>  (824) 
nan

>  <Assay Subcellular Fraction>  (824) 
nan

>  <Organism Tax ID>  (824) 
9606

>  <BAO Format ID>  (824) 
BAO_0000019

>  <Published Type>  (824) 
nan

>  <Published Relation>  (824) 
nan

>  <Published Value>  (824) 
nan

>  <Published Units>  (824) 
nan

>  <Canonical Smiles>  (824) 
NC(=O)c1cc2c(Oc3ccc(Br)cc3)cncc2s1

>  <Data Validity Comment>  (824) 
nan

>  <Document Journal>  (824) 
nan

>  <Document Year>  (824) 
nan

>  <SRC ID>  (824) 
7

>  <UO Units>  (824) 
UO_0000065

>  <Potential Duplicate>  (824) 
False

>  <Class>  (824) 
0

$$$$

     RDKit          2D

 36 40  0  0  0  0  0  0  0  0999 V2000
    2.7760    0.0000    0.0000 N   0  0  0  0  0  0  0  0  0  0  0  0
    1.2760    0.0000    0.0000 C   0  0  0  0  0  0  0  0  0  0  0  0
    0.3943    1.2135    0.0000 N   0  0  0  0  0  0  0  0  0  0  0  0
   -1.0323    0.7500    0.0000 N   0  0  0  0  0  0  0  0  0  0  0  0
   -1.0323   -0.7500    0.0000 C   0  0  0  0  0  0  0  0  0  0  0  0
   -2.1470   -1.7537    0.0000 C   0  0  0  0  0  0  0  0  0  0  0  0
   -3.5736   -1.2902    0.0000 O   0  0  0  0  0  0  0  0  0  0  0  0
   -4.6883   -2.2939    0.0000 C   0  0  0  0  0  0  0  0  0  0  0  0
   -6.1149   -1.8303    0.0000 C   0  0  0  0  0  0  0  0  0  0  0  0
   -7.2296   -2.8340    0.0000 C   0  0  0  0  0  0  0  0  0  0  0  0
   -8.6562   -2.3705    0.0000 N   0  0  0  0  0  0  0  0  0  0  0  0
   -9.8697   -3.2522    0.0000 C   0  0  0  0  0  0  0  0  0  0  0  0
  -11.0832   -2.3705    0.0000 C   0  0  0  0  0  0  0  0  0  0  0  0
  -10.6197   -0.9439    0.0000 C   0  0  0  0  0  0  0  0  0  0  0  0
   -9.1197   -0.9439    0.0000 C   0  0  0  0  0  0  0  0  0  0  0  0
   -1.8351   -3.2209    0.0000 C   0  0  0  0  0  0  0  0  0  0  0  0
   -0.4086   -3.6844    0.0000 C   0  0  0  0  0  0  0  0  0  0  0  0
    0.7062   -2.6807    0.0000 C   0  0  0  0  0  0  0  0  0  0  0  0
    2.1328   -3.1443    0.0000 C   0  0  0  0  0  0  0  0  0  0  0  0
    2.4446   -4.6115    0.0000 C   0  0  0  0  0  0  0  0  0  0  0  0
    3.8712   -5.0750    0.0000 C   0  0  0  0  0  0  0  0  0  0  0  0
    4.9859   -4.0713    0.0000 C   0  0  0  0  0  0  0  0  0  0  0  0
    6.4125   -4.5348    0.0000 N   0  0  0  0  0  0  0  0  0  0  0  0
    6.7244   -6.0021    0.0000 C   0  0  0  0  0  0  0  0  0  0  0  0
    5.6097   -7.0058    0.0000 O   0  0  0  0  0  0  0  0  0  0  0  0
    8.1510   -6.4656    0.0000 N   0  0  0  0  0  0  0  0  0  0  0  0
    8.4628   -7.9328    0.0000 C   0  0  0  0  0  0  0  0  0  0  0  0
    7.3481   -8.9365    0.0000 C   0  0  0  0  0  0  0  0  0  0  0  0
    7.6600  -10.4037    0.0000 C   0  0  0  0  0  0  0  0  0  0  0  0
    9.0866  -10.8673    0.0000 C   0  0  0  0  0  0  0  0  0  0  0  0
   10.2013   -9.8636    0.0000 C   0  0  0  0  0  0  0  0  0  0  0  0
   11.6279  -10.3271    0.0000 Cl  0  0  0  0  0  0  0  0  0  0  0  0
    9.8894   -8.3963    0.0000 C   0  0  0  0  0  0  0  0  0  0  0  0
    4.6741   -2.6041    0.0000 C   0  0  0  0  0  0  0  0  0  0  0  0
    3.2475   -2.1406    0.0000 C   0  0  0  0  0  0  0  0  0  0  0  0
    0.3943   -1.2135    0.0000 C   0  0  0  0  0  0  0  0  0  0  0  0
  1  2  1  0
  2  3  2  0
  3  4  1  0
  4  5  1  0
  5  6  2  0
  6  7  1  0
  7  8  1  0
  8  9  1  0
  9 10  1  0
 10 11  1  0
 11 12  1  0
 12 13  2  0
 13 14  1  0
 14 15  2  0
  6 16  1  0
 16 17  2  0
 17 18  1  0
 18 19  1  0
 19 20  2  0
 20 21  1  0
 21 22  2  0
 22 23  1  0
 23 24  1  0
 24 25  2  0
 24 26  1  0
 26 27  1  0
 27 28  2  0
 28 29  1  0
 29 30  2  0
 30 31  1  0
 31 32  1  0
 31 33  2  0
 22 34  1  0
 34 35  2  0
 18 36  2  0
 36  2  1  0
 36  5  1  0
 15 11  1  0
 35 19  1  0
 33 27  1  0
M  END
>  <Molecule>  (825) 
CHEMBL1965387

>  <Standard Type>  (825) 
Ki

>  <Standard Relation>  (825) 
>

>  <Standard Value>  (825) 
5011.87

>  <Standard Units>  (825) 
nM

>  <pChEMBL Value>  (825) 
nan

>  <Comment>  (825) 
inactive

>  <Compound Key>  (825) 
SID103904860

>  <Assay>  (825) 
CHEMBL1963742

>  <Assay Description>  (825) 
PUBCHEM_BIOASSAY: Navigating the Kinome. (Class of assay: other) Panel member name: JAK3

>  <BAO Format>  (825) 
assay format

>  <Target>  (825) 
CHEMBL2148

>  <Target Pref. Name>  (825) 
Tyrosine-protein kinase JAK3

>  <Target Organism>  (825) 
Homo sapiens

>  <Target Type>  (825) 
SINGLE PROTEIN

>  <Document>  (825) 
CHEMBL1201862

>  <Source>  (825) 
PubChem BioAssays

>  <Max Phase>  (825) 
0

>  <#Ro5 Violations>  (825) 
2

>  <Molecular Weight>  (825) 
500.99

>  <Ligand Efficiency BEI>  (825) 
nan

>  <Ligand Efficiency LE>  (825) 
nan

>  <Ligand Efficiency LLE>  (825) 
nan

>  <Ligand Efficiency SEI>  (825) 
nan

>  <ALogP>  (825) 
6.38

>  <Assay Organism>  (825) 
nan

>  <Assay Tissue ChEMBL ID>  (825) 
nan

>  <Assay Tissue Name>  (825) 
nan

>  <Assay Cell Type>  (825) 
nan

>  <Assay Subcellular Fraction>  (825) 
nan

>  <Organism Tax ID>  (825) 
9606

>  <BAO Format ID>  (825) 
BAO_0000019

>  <Published Type>  (825) 
nan

>  <Published Relation>  (825) 
nan

>  <Published Value>  (825) 
nan

>  <Published Units>  (825) 
nan

>  <Canonical Smiles>  (825) 
Nc1n[nH]c2c(OCCCn3cccc3)ccc(c4ccc(NC(=O)Nc5cccc(Cl)c5)cc4)c12

>  <Data Validity Comment>  (825) 
nan

>  <Document Journal>  (825) 
nan

>  <Document Year>  (825) 
nan

>  <SRC ID>  (825) 
7

>  <UO Units>  (825) 
UO_0000065

>  <Potential Duplicate>  (825) 
False

>  <Class>  (825) 
0

$$$$

     RDKit          2D

 23 25  0  0  0  0  0  0  0  0999 V2000
   -7.8961   -8.2060    0.0000 C   0  0  0  0  0  0  0  0  0  0  0  0
   -6.4289   -8.5179    0.0000 C   0  0  0  0  0  0  0  0  0  0  0  0
   -4.9617   -8.8297    0.0000 C   0  0  0  0  0  0  0  0  0  0  0  0
   -6.7407   -9.9851    0.0000 C   0  0  0  0  0  0  0  0  0  0  0  0
   -5.6260  -10.9888    0.0000 N   0  0  0  0  0  0  0  0  0  0  0  0
   -6.1170   -7.0506    0.0000 C   0  0  0  0  0  0  0  0  0  0  0  0
   -4.6904   -6.5871    0.0000 N   0  0  0  0  0  0  0  0  0  0  0  0
   -4.3786   -5.1199    0.0000 C   0  0  0  0  0  0  0  0  0  0  0  0
   -5.4933   -4.1162    0.0000 N   0  0  0  0  0  0  0  0  0  0  0  0
   -5.1814   -2.6490    0.0000 C   0  0  0  0  0  0  0  0  0  0  0  0
   -6.2961   -1.6453    0.0000 Cl  0  0  0  0  0  0  0  0  0  0  0  0
   -3.7548   -2.1855    0.0000 C   0  0  0  0  0  0  0  0  0  0  0  0
   -2.6401   -3.1891    0.0000 C   0  0  0  0  0  0  0  0  0  0  0  0
   -2.9520   -4.6564    0.0000 N   0  0  0  0  0  0  0  0  0  0  0  0
   -1.2135   -2.7256    0.0000 C   0  0  0  0  0  0  0  0  0  0  0  0
    0.0000   -3.6073    0.0000 C   0  0  0  0  0  0  0  0  0  0  0  0
    1.2135   -2.7256    0.0000 N   0  0  0  0  0  0  0  0  0  0  0  0
    0.7500   -1.2990    0.0000 C   0  0  0  0  0  0  0  0  0  0  0  0
    1.5000    0.0000    0.0000 N   0  0  0  0  0  0  0  0  0  0  0  0
    0.7500    1.2990    0.0000 C   0  0  0  0  0  0  0  0  0  0  0  0
   -0.7500    1.2990    0.0000 C   0  0  0  0  0  0  0  0  0  0  0  0
   -1.5000    0.0000    0.0000 C   0  0  0  0  0  0  0  0  0  0  0  0
   -0.7500   -1.2990    0.0000 C   0  0  0  0  0  0  0  0  0  0  0  0
  1  2  1  0
  2  3  1  0
  2  4  1  0
  4  5  1  0
  2  6  1  0
  6  7  1  0
  7  8  1  0
  8  9  2  0
  9 10  1  0
 10 11  1  0
 10 12  2  0
 12 13  1  0
 13 14  2  0
 13 15  1  0
 15 16  2  0
 16 17  1  0
 17 18  1  0
 18 19  2  0
 19 20  1  0
 20 21  2  0
 21 22  1  0
 22 23  2  0
 14  8  1  0
 23 15  1  0
 23 18  1  0
M  END
>  <Molecule>  (826) 
CHEMBL1968930

>  <Standard Type>  (826) 
Ki

>  <Standard Relation>  (826) 
=

>  <Standard Value>  (826) 
251.19

>  <Standard Units>  (826) 
nM

>  <pChEMBL Value>  (826) 
6.6

>  <Comment>  (826) 
active

>  <Compound Key>  (826) 
SID103904226

>  <Assay>  (826) 
CHEMBL1963742

>  <Assay Description>  (826) 
PUBCHEM_BIOASSAY: Navigating the Kinome. (Class of assay: other) Panel member name: JAK3

>  <BAO Format>  (826) 
assay format

>  <Target>  (826) 
CHEMBL2148

>  <Target Pref. Name>  (826) 
Tyrosine-protein kinase JAK3

>  <Target Organism>  (826) 
Homo sapiens

>  <Target Type>  (826) 
SINGLE PROTEIN

>  <Document>  (826) 
CHEMBL1201862

>  <Source>  (826) 
PubChem BioAssays

>  <Max Phase>  (826) 
0

>  <#Ro5 Violations>  (826) 
0

>  <Molecular Weight>  (826) 
330.82

>  <Ligand Efficiency BEI>  (826) 
nan

>  <Ligand Efficiency LE>  (826) 
nan

>  <Ligand Efficiency LLE>  (826) 
nan

>  <Ligand Efficiency SEI>  (826) 
nan

>  <ALogP>  (826) 
3.07

>  <Assay Organism>  (826) 
nan

>  <Assay Tissue ChEMBL ID>  (826) 
nan

>  <Assay Tissue Name>  (826) 
nan

>  <Assay Cell Type>  (826) 
nan

>  <Assay Subcellular Fraction>  (826) 
nan

>  <Organism Tax ID>  (826) 
9606

>  <BAO Format ID>  (826) 
BAO_0000019

>  <Published Type>  (826) 
nan

>  <Published Relation>  (826) 
nan

>  <Published Value>  (826) 
nan

>  <Published Units>  (826) 
nan

>  <Canonical Smiles>  (826) 
CC(C)(CN)CNc1nc(Cl)cc(n1)c2c[nH]c3ncccc23

>  <Data Validity Comment>  (826) 
nan

>  <Document Journal>  (826) 
nan

>  <Document Year>  (826) 
nan

>  <SRC ID>  (826) 
7

>  <UO Units>  (826) 
UO_0000065

>  <Potential Duplicate>  (826) 
False

>  <Class>  (826) 
1

$$$$

     RDKit          2D

 29 32  0  0  0  0  0  0  0  0999 V2000
   -4.6883    2.2939    0.0000 C   0  0  0  0  0  0  0  0  0  0  0  0
   -3.5736    1.2902    0.0000 O   0  0  0  0  0  0  0  0  0  0  0  0
   -2.1470    1.7537    0.0000 C   0  0  0  0  0  0  0  0  0  0  0  0
   -1.8351    3.2209    0.0000 C   0  0  0  0  0  0  0  0  0  0  0  0
   -0.4086    3.6844    0.0000 C   0  0  0  0  0  0  0  0  0  0  0  0
    0.7062    2.6807    0.0000 C   0  0  0  0  0  0  0  0  0  0  0  0
    2.1328    3.1443    0.0000 C   0  0  0  0  0  0  0  0  0  0  0  0
    3.2475    2.1406    0.0000 C   0  0  0  0  0  0  0  0  0  0  0  0
    4.6741    2.6041    0.0000 C   0  0  0  0  0  0  0  0  0  0  0  0
    4.9859    4.0713    0.0000 C   0  0  0  0  0  0  0  0  0  0  0  0
    6.4125    4.5348    0.0000 N   0  0  0  0  0  0  0  0  0  0  0  0
    7.5272    3.5312    0.0000 C   0  0  0  0  0  0  0  0  0  0  0  0
    7.2154    2.0639    0.0000 O   0  0  0  0  0  0  0  0  0  0  0  0
    8.9538    3.9947    0.0000 N   0  0  0  0  0  0  0  0  0  0  0  0
   10.0685    2.9910    0.0000 C   0  0  0  0  0  0  0  0  0  0  0  0
    9.7567    1.5238    0.0000 C   0  0  0  0  0  0  0  0  0  0  0  0
   10.8714    0.5201    0.0000 C   0  0  0  0  0  0  0  0  0  0  0  0
   12.2980    0.9836    0.0000 C   0  0  0  0  0  0  0  0  0  0  0  0
   12.6098    2.4508    0.0000 C   0  0  0  0  0  0  0  0  0  0  0  0
   14.0364    2.9143    0.0000 Br  0  0  0  0  0  0  0  0  0  0  0  0
   11.4951    3.4545    0.0000 C   0  0  0  0  0  0  0  0  0  0  0  0
    3.8712    5.0750    0.0000 C   0  0  0  0  0  0  0  0  0  0  0  0
    2.4446    4.6115    0.0000 C   0  0  0  0  0  0  0  0  0  0  0  0
    0.3943    1.2135    0.0000 C   0  0  0  0  0  0  0  0  0  0  0  0
    1.2760    0.0000    0.0000 C   0  0  0  0  0  0  0  0  0  0  0  0
    2.7760    0.0000    0.0000 N   0  0  0  0  0  0  0  0  0  0  0  0
    0.3943   -1.2135    0.0000 N   0  0  0  0  0  0  0  0  0  0  0  0
   -1.0323   -0.7500    0.0000 O   0  0  0  0  0  0  0  0  0  0  0  0
   -1.0323    0.7500    0.0000 C   0  0  0  0  0  0  0  0  0  0  0  0
  1  2  1  0
  2  3  1  0
  3  4  2  0
  4  5  1  0
  5  6  2  0
  6  7  1  0
  7  8  2  0
  8  9  1  0
  9 10  2  0
 10 11  1  0
 11 12  1  0
 12 13  2  0
 12 14  1  0
 14 15  1  0
 15 16  2  0
 16 17  1  0
 17 18  2  0
 18 19  1  0
 19 20  1  0
 19 21  2  0
 10 22  1  0
 22 23  2  0
  6 24  1  0
 24 25  1  0
 25 26  1  0
 25 27  2  0
 27 28  1  0
 28 29  1  0
 29  3  1  0
 23  7  1  0
 21 15  1  0
 29 24  2  0
M  END
>  <Molecule>  (827) 
CHEMBL271381

>  <Standard Type>  (827) 
Ki

>  <Standard Relation>  (827) 
=

>  <Standard Value>  (827) 
1258.93

>  <Standard Units>  (827) 
nM

>  <pChEMBL Value>  (827) 
5.9

>  <Comment>  (827) 
active

>  <Compound Key>  (827) 
SID103904335

>  <Assay>  (827) 
CHEMBL1963742

>  <Assay Description>  (827) 
PUBCHEM_BIOASSAY: Navigating the Kinome. (Class of assay: other) Panel member name: JAK3

>  <BAO Format>  (827) 
assay format

>  <Target>  (827) 
CHEMBL2148

>  <Target Pref. Name>  (827) 
Tyrosine-protein kinase JAK3

>  <Target Organism>  (827) 
Homo sapiens

>  <Target Type>  (827) 
SINGLE PROTEIN

>  <Document>  (827) 
CHEMBL1201862

>  <Source>  (827) 
PubChem BioAssays

>  <Max Phase>  (827) 
0

>  <#Ro5 Violations>  (827) 
1

>  <Molecular Weight>  (827) 
453.3

>  <Ligand Efficiency BEI>  (827) 
nan

>  <Ligand Efficiency LE>  (827) 
nan

>  <Ligand Efficiency LLE>  (827) 
nan

>  <Ligand Efficiency SEI>  (827) 
nan

>  <ALogP>  (827) 
5.49

>  <Assay Organism>  (827) 
nan

>  <Assay Tissue ChEMBL ID>  (827) 
nan

>  <Assay Tissue Name>  (827) 
nan

>  <Assay Cell Type>  (827) 
nan

>  <Assay Subcellular Fraction>  (827) 
nan

>  <Organism Tax ID>  (827) 
9606

>  <BAO Format ID>  (827) 
BAO_0000019

>  <Published Type>  (827) 
nan

>  <Published Relation>  (827) 
nan

>  <Published Value>  (827) 
nan

>  <Published Units>  (827) 
nan

>  <Canonical Smiles>  (827) 
COc1ccc(c2ccc(NC(=O)Nc3cccc(Br)c3)cc2)c4c(N)noc14

>  <Data Validity Comment>  (827) 
nan

>  <Document Journal>  (827) 
nan

>  <Document Year>  (827) 
nan

>  <SRC ID>  (827) 
7

>  <UO Units>  (827) 
UO_0000065

>  <Potential Duplicate>  (827) 
False

>  <Class>  (827) 
1

$$$$

     RDKit          2D

 32 36  0  0  0  0  0  0  0  0999 V2000
   -1.8373   -5.6601    0.0000 O   0  0  0  0  0  0  0  0  0  0  0  0
   -2.9520   -4.6564    0.0000 C   0  0  0  0  0  0  0  0  0  0  0  0
   -2.6401   -3.1891    0.0000 N   0  0  0  0  0  0  0  0  0  0  0  0
   -1.2135   -2.7256    0.0000 C   0  0  0  0  0  0  0  0  0  0  0  0
    0.0000   -3.6073    0.0000 N   0  0  0  0  0  0  0  0  0  0  0  0
    1.2135   -2.7256    0.0000 N   0  0  0  0  0  0  0  0  0  0  0  0
    0.7500   -1.2990    0.0000 C   0  0  0  0  0  0  0  0  0  0  0  0
    1.5000    0.0000    0.0000 C   0  0  0  0  0  0  0  0  0  0  0  0
    0.7500    1.2990    0.0000 C   0  0  0  0  0  0  0  0  0  0  0  0
   -0.7500    1.2990    0.0000 C   0  0  0  0  0  0  0  0  0  0  0  0
   -1.5000    0.0000    0.0000 C   0  0  0  0  0  0  0  0  0  0  0  0
   -0.7500   -1.2990    0.0000 C   0  0  0  0  0  0  0  0  0  0  0  0
   -1.5000    2.5981    0.0000 C   0  0  0  0  0  0  0  0  0  0  0  0
   -2.9918    2.7549    0.0000 C   0  0  0  0  0  0  0  0  0  0  0  0
   -3.3037    4.2221    0.0000 N   0  0  0  0  0  0  0  0  0  0  0  0
   -4.6740    4.8322    0.0000 C   0  0  0  0  0  0  0  0  0  0  0  0
   -4.8308    6.3240    0.0000 C   0  0  0  0  0  0  0  0  0  0  0  0
   -3.6172    7.2057    0.0000 C   0  0  0  0  0  0  0  0  0  0  0  0
   -3.7740    8.6974    0.0000 C   0  0  0  0  0  0  0  0  0  0  0  0
   -5.1443    9.3075    0.0000 C   0  0  0  0  0  0  0  0  0  0  0  0
   -6.3579    8.4259    0.0000 C   0  0  0  0  0  0  0  0  0  0  0  0
   -6.2011    6.9341    0.0000 C   0  0  0  0  0  0  0  0  0  0  0  0
   -2.0046    4.9721    0.0000 N   0  0  0  0  0  0  0  0  0  0  0  0
   -0.8899    3.9684    0.0000 N   0  0  0  0  0  0  0  0  0  0  0  0
   -4.3786   -5.1199    0.0000 C   0  0  0  0  0  0  0  0  0  0  0  0
   -5.4933   -4.1162    0.0000 C   0  0  0  0  0  0  0  0  0  0  0  0
   -6.9199   -4.5797    0.0000 C   0  0  0  0  0  0  0  0  0  0  0  0
   -7.2317   -6.0469    0.0000 C   0  0  0  0  0  0  0  0  0  0  0  0
   -6.1170   -7.0506    0.0000 C   0  0  0  0  0  0  0  0  0  0  0  0
   -4.6904   -6.5871    0.0000 C   0  0  0  0  0  0  0  0  0  0  0  0
   -8.6583   -6.5105    0.0000 C   0  0  0  0  0  0  0  0  0  0  0  0
  -10.0849   -6.9740    0.0000 N   0  0  0  0  0  0  0  0  0  0  0  0
  1  2  2  0
  2  3  1  0
  3  4  1  0
  4  5  2  0
  5  6  1  0
  6  7  1  0
  7  8  2  0
  8  9  1  0
  9 10  2  0
 10 11  1  0
 11 12  2  0
 10 13  1  0
 13 14  2  0
 14 15  1  0
 15 16  1  0
 16 17  1  0
 17 18  2  0
 18 19  1  0
 19 20  2  0
 20 21  1  0
 21 22  2  0
 15 23  1  0
 23 24  2  0
  2 25  1  0
 25 26  2  0
 26 27  1  0
 27 28  2  0
 28 29  1  0
 29 30  2  0
 28 31  1  0
 31 32  3  0
 12  4  1  0
 12  7  1  0
 24 13  1  0
 22 17  1  0
 30 25  1  0
M  END
>  <Molecule>  (828) 
CHEMBL1990162

>  <Standard Type>  (828) 
Ki

>  <Standard Relation>  (828) 
=

>  <Standard Value>  (828) 
3981.07

>  <Standard Units>  (828) 
nM

>  <pChEMBL Value>  (828) 
5.4

>  <Comment>  (828) 
active

>  <Compound Key>  (828) 
SID103904533

>  <Assay>  (828) 
CHEMBL1963742

>  <Assay Description>  (828) 
PUBCHEM_BIOASSAY: Navigating the Kinome. (Class of assay: other) Panel member name: JAK3

>  <BAO Format>  (828) 
assay format

>  <Target>  (828) 
CHEMBL2148

>  <Target Pref. Name>  (828) 
Tyrosine-protein kinase JAK3

>  <Target Organism>  (828) 
Homo sapiens

>  <Target Type>  (828) 
SINGLE PROTEIN

>  <Document>  (828) 
CHEMBL1201862

>  <Source>  (828) 
PubChem BioAssays

>  <Max Phase>  (828) 
0

>  <#Ro5 Violations>  (828) 
0

>  <Molecular Weight>  (828) 
419.45

>  <Ligand Efficiency BEI>  (828) 
nan

>  <Ligand Efficiency LE>  (828) 
nan

>  <Ligand Efficiency LLE>  (828) 
nan

>  <Ligand Efficiency SEI>  (828) 
nan

>  <ALogP>  (828) 
3.99

>  <Assay Organism>  (828) 
nan

>  <Assay Tissue ChEMBL ID>  (828) 
nan

>  <Assay Tissue Name>  (828) 
nan

>  <Assay Cell Type>  (828) 
nan

>  <Assay Subcellular Fraction>  (828) 
nan

>  <Organism Tax ID>  (828) 
9606

>  <BAO Format ID>  (828) 
BAO_0000019

>  <Published Type>  (828) 
nan

>  <Published Relation>  (828) 
nan

>  <Published Value>  (828) 
nan

>  <Published Units>  (828) 
nan

>  <Canonical Smiles>  (828) 
O=C(Nc1n[nH]c2ccc(cc12)c3cn(Cc4ccccc4)nn3)c5ccc(cc5)C#N

>  <Data Validity Comment>  (828) 
nan

>  <Document Journal>  (828) 
nan

>  <Document Year>  (828) 
nan

>  <SRC ID>  (828) 
7

>  <UO Units>  (828) 
UO_0000065

>  <Potential Duplicate>  (828) 
False

>  <Class>  (828) 
1

$$$$

     RDKit          2D

 22 25  0  0  0  0  0  0  0  0999 V2000
   -5.1814   -2.6490    0.0000 C   0  0  0  0  0  0  0  0  0  0  0  0
   -3.7548   -2.1855    0.0000 C   0  0  0  0  0  0  0  0  0  0  0  0
   -3.4430   -0.7182    0.0000 C   0  0  0  0  0  0  0  0  0  0  0  0
   -2.6401   -3.1891    0.0000 N   0  0  0  0  0  0  0  0  0  0  0  0
   -1.2135   -2.7256    0.0000 C   0  0  0  0  0  0  0  0  0  0  0  0
   -0.0000   -3.6073    0.0000 C   0  0  0  0  0  0  0  0  0  0  0  0
    1.2135   -2.7256    0.0000 N   0  0  0  0  0  0  0  0  0  0  0  0
    0.7500   -1.2990    0.0000 C   0  0  0  0  0  0  0  0  0  0  0  0
    1.5000    0.0000    0.0000 N   0  0  0  0  0  0  0  0  0  0  0  0
    0.7500    1.2990    0.0000 C   0  0  0  0  0  0  0  0  0  0  0  0
   -0.7500    1.2990    0.0000 C   0  0  0  0  0  0  0  0  0  0  0  0
   -1.5000    0.0000    0.0000 C   0  0  0  0  0  0  0  0  0  0  0  0
   -0.7500   -1.2990    0.0000 N   0  0  0  0  0  0  0  0  0  0  0  0
   -0.0000   -5.1073    0.0000 C   0  0  0  0  0  0  0  0  0  0  0  0
    1.2990   -5.8573    0.0000 C   0  0  0  0  0  0  0  0  0  0  0  0
    1.2990   -7.3573    0.0000 C   0  0  0  0  0  0  0  0  0  0  0  0
    0.0000   -8.1073    0.0000 C   0  0  0  0  0  0  0  0  0  0  0  0
   -0.3119   -9.5745    0.0000 N   0  0  0  0  0  0  0  0  0  0  0  0
   -1.8037   -9.7313    0.0000 N   0  0  0  0  0  0  0  0  0  0  0  0
   -2.4138   -8.3610    0.0000 C   0  0  0  0  0  0  0  0  0  0  0  0
   -1.2990   -7.3573    0.0000 C   0  0  0  0  0  0  0  0  0  0  0  0
   -1.2990   -5.8573    0.0000 C   0  0  0  0  0  0  0  0  0  0  0  0
  1  2  1  0
  2  3  1  0
  2  4  1  0
  4  5  1  0
  5  6  2  0
  6  7  1  0
  7  8  2  0
  8  9  1  0
  9 10  2  0
 10 11  1  0
 11 12  2  0
 12 13  1  0
  6 14  1  0
 14 15  2  0
 15 16  1  0
 16 17  2  0
 17 18  1  0
 18 19  1  0
 19 20  2  0
 20 21  1  0
 21 22  2  0
 13  5  1  0
 13  8  1  0
 22 14  1  0
 21 17  1  0
M  END
>  <Molecule>  (829) 
CHEMBL1682553

>  <Standard Type>  (829) 
Ki

>  <Standard Relation>  (829) 
>

>  <Standard Value>  (829) 
1584.89

>  <Standard Units>  (829) 
nM

>  <pChEMBL Value>  (829) 
nan

>  <Comment>  (829) 
inactive

>  <Compound Key>  (829) 
SID103904510

>  <Assay>  (829) 
CHEMBL1963742

>  <Assay Description>  (829) 
PUBCHEM_BIOASSAY: Navigating the Kinome. (Class of assay: other) Panel member name: JAK3

>  <BAO Format>  (829) 
assay format

>  <Target>  (829) 
CHEMBL2148

>  <Target Pref. Name>  (829) 
Tyrosine-protein kinase JAK3

>  <Target Organism>  (829) 
Homo sapiens

>  <Target Type>  (829) 
SINGLE PROTEIN

>  <Document>  (829) 
CHEMBL1201862

>  <Source>  (829) 
PubChem BioAssays

>  <Max Phase>  (829) 
0

>  <#Ro5 Violations>  (829) 
0

>  <Molecular Weight>  (829) 
292.35

>  <Ligand Efficiency BEI>  (829) 
nan

>  <Ligand Efficiency LE>  (829) 
nan

>  <Ligand Efficiency LLE>  (829) 
nan

>  <Ligand Efficiency SEI>  (829) 
nan

>  <ALogP>  (829) 
3.09

>  <Assay Organism>  (829) 
nan

>  <Assay Tissue ChEMBL ID>  (829) 
nan

>  <Assay Tissue Name>  (829) 
nan

>  <Assay Cell Type>  (829) 
nan

>  <Assay Subcellular Fraction>  (829) 
nan

>  <Organism Tax ID>  (829) 
9606

>  <BAO Format ID>  (829) 
BAO_0000019

>  <Published Type>  (829) 
nan

>  <Published Relation>  (829) 
nan

>  <Published Value>  (829) 
nan

>  <Published Units>  (829) 
nan

>  <Canonical Smiles>  (829) 
CC(C)Nc1c(nc2ncccn12)c3ccc4[nH]ncc4c3

>  <Data Validity Comment>  (829) 
nan

>  <Document Journal>  (829) 
nan

>  <Document Year>  (829) 
nan

>  <SRC ID>  (829) 
7

>  <UO Units>  (829) 
UO_0000065

>  <Potential Duplicate>  (829) 
False

>  <Class>  (829) 
0

$$$$

     RDKit          2D

 12 13  0  0  0  0  0  0  0  0999 V2000
    3.0000    0.0000    0.0000 Br  0  0  0  0  0  0  0  0  0  0  0  0
    1.5000    0.0000    0.0000 C   0  0  0  0  0  0  0  0  0  0  0  0
    0.7500   -1.2990    0.0000 C   0  0  0  0  0  0  0  0  0  0  0  0
   -0.7500   -1.2990    0.0000 C   0  0  0  0  0  0  0  0  0  0  0  0
   -1.5000    0.0000    0.0000 C   0  0  0  0  0  0  0  0  0  0  0  0
   -3.0000    0.0000    0.0000 N   0  0  0  0  0  0  0  0  0  0  0  0
   -3.7500    1.2990    0.0000 C   0  0  0  0  0  0  0  0  0  0  0  0
   -3.0000    2.5981    0.0000 N   0  0  0  0  0  0  0  0  0  0  0  0
   -1.5000    2.5981    0.0000 C   0  0  0  0  0  0  0  0  0  0  0  0
   -0.7500    3.8971    0.0000 O   0  0  0  0  0  0  0  0  0  0  0  0
   -0.7500    1.2990    0.0000 C   0  0  0  0  0  0  0  0  0  0  0  0
    0.7500    1.2990    0.0000 C   0  0  0  0  0  0  0  0  0  0  0  0
  1  2  1  0
  2  3  2  0
  3  4  1  0
  4  5  2  0
  5  6  1  0
  6  7  2  0
  7  8  1  0
  8  9  1  0
  9 10  2  0
  9 11  1  0
 11 12  2  0
 12  2  1  0
 11  5  1  0
M  END
>  <Molecule>  (830) 
CHEMBL562488

>  <Standard Type>  (830) 
Ki

>  <Standard Relation>  (830) 
>

>  <Standard Value>  (830) 
15848.93

>  <Standard Units>  (830) 
nM

>  <pChEMBL Value>  (830) 
nan

>  <Comment>  (830) 
inactive

>  <Compound Key>  (830) 
SID103905307

>  <Assay>  (830) 
CHEMBL1963742

>  <Assay Description>  (830) 
PUBCHEM_BIOASSAY: Navigating the Kinome. (Class of assay: other) Panel member name: JAK3

>  <BAO Format>  (830) 
assay format

>  <Target>  (830) 
CHEMBL2148

>  <Target Pref. Name>  (830) 
Tyrosine-protein kinase JAK3

>  <Target Organism>  (830) 
Homo sapiens

>  <Target Type>  (830) 
SINGLE PROTEIN

>  <Document>  (830) 
CHEMBL1201862

>  <Source>  (830) 
PubChem BioAssays

>  <Max Phase>  (830) 
0

>  <#Ro5 Violations>  (830) 
0

>  <Molecular Weight>  (830) 
225.04

>  <Ligand Efficiency BEI>  (830) 
nan

>  <Ligand Efficiency LE>  (830) 
nan

>  <Ligand Efficiency LLE>  (830) 
nan

>  <Ligand Efficiency SEI>  (830) 
nan

>  <ALogP>  (830) 
1.69

>  <Assay Organism>  (830) 
nan

>  <Assay Tissue ChEMBL ID>  (830) 
nan

>  <Assay Tissue Name>  (830) 
nan

>  <Assay Cell Type>  (830) 
nan

>  <Assay Subcellular Fraction>  (830) 
nan

>  <Organism Tax ID>  (830) 
9606

>  <BAO Format ID>  (830) 
BAO_0000019

>  <Published Type>  (830) 
nan

>  <Published Relation>  (830) 
nan

>  <Published Value>  (830) 
nan

>  <Published Units>  (830) 
nan

>  <Canonical Smiles>  (830) 
Brc1ccc2N=CNC(=O)c2c1

>  <Data Validity Comment>  (830) 
nan

>  <Document Journal>  (830) 
nan

>  <Document Year>  (830) 
nan

>  <SRC ID>  (830) 
7

>  <UO Units>  (830) 
UO_0000065

>  <Potential Duplicate>  (830) 
False

>  <Class>  (830) 
0

$$$$

     RDKit          2D

 34 39  0  0  0  0  0  0  0  0999 V2000
    3.0000    0.0000    0.0000 N   0  0  0  0  0  0  0  0  0  0  0  0
    1.5000    0.0000    0.0000 C   0  0  0  0  0  0  0  0  0  0  0  0
    0.7500   -1.2990    0.0000 N   0  0  0  0  0  0  0  0  0  0  0  0
   -0.7500   -1.2990    0.0000 C   0  0  0  0  0  0  0  0  0  0  0  0
   -1.5000    0.0000    0.0000 C   0  0  0  0  0  0  0  0  0  0  0  0
   -0.7500    1.2990    0.0000 N   0  0  0  0  0  0  0  0  0  0  0  0
   -1.2135    2.7256    0.0000 C   0  0  0  0  0  0  0  0  0  0  0  0
    0.0000    3.6073    0.0000 N   0  0  0  0  0  0  0  0  0  0  0  0
    1.2135    2.7256    0.0000 C   0  0  0  0  0  0  0  0  0  0  0  0
    2.6401    3.1891    0.0000 C   0  0  0  0  0  0  0  0  0  0  0  0
    3.7548    2.1855    0.0000 C   0  0  0  0  0  0  0  0  0  0  0  0
    5.1814    2.6490    0.0000 C   0  0  0  0  0  0  0  0  0  0  0  0
    5.4933    4.1162    0.0000 C   0  0  0  0  0  0  0  0  0  0  0  0
    4.3786    5.1199    0.0000 C   0  0  0  0  0  0  0  0  0  0  0  0
    4.6904    6.5871    0.0000 O   0  0  0  0  0  0  0  0  0  0  0  0
    6.1170    7.0506    0.0000 C   0  0  0  0  0  0  0  0  0  0  0  0
    6.4289    8.5179    0.0000 C   0  0  0  0  0  0  0  0  0  0  0  0
    7.8555    8.9814    0.0000 C   0  0  0  0  0  0  0  0  0  0  0  0
    8.1673   10.4486    0.0000 C   0  0  0  0  0  0  0  0  0  0  0  0
    7.0526   11.4523    0.0000 C   0  0  0  0  0  0  0  0  0  0  0  0
    5.6260   10.9888    0.0000 C   0  0  0  0  0  0  0  0  0  0  0  0
    5.3142    9.5216    0.0000 C   0  0  0  0  0  0  0  0  0  0  0  0
    2.9520    4.6564    0.0000 C   0  0  0  0  0  0  0  0  0  0  0  0
    0.7500    1.2990    0.0000 C   0  0  0  0  0  0  0  0  0  0  0  0
   -2.6401    3.1891    0.0000 C   0  0  0  0  0  0  0  0  0  0  0  0
   -3.3211    4.5257    0.0000 C   0  0  0  0  0  0  0  0  0  0  0  0
   -4.6576    3.8447    0.0000 C   0  0  0  0  0  0  0  0  0  0  0  0
   -6.0842    4.3082    0.0000 C   0  0  0  0  0  0  0  0  0  0  0  0
   -6.3961    5.7754    0.0000 N   0  0  0  0  0  0  0  0  0  0  0  0
   -7.7664    6.3855    0.0000 C   0  0  0  0  0  0  0  0  0  0  0  0
   -7.6096    7.8773    0.0000 C   0  0  0  0  0  0  0  0  0  0  0  0
   -6.1424    8.1892    0.0000 C   0  0  0  0  0  0  0  0  0  0  0  0
   -5.3924    6.8901    0.0000 C   0  0  0  0  0  0  0  0  0  0  0  0
   -3.9766    2.5082    0.0000 C   0  0  0  0  0  0  0  0  0  0  0  0
  1  2  1  0
  2  3  2  0
  3  4  1  0
  4  5  2  0
  5  6  1  0
  6  7  1  0
  7  8  2  0
  8  9  1  0
  9 10  1  0
 10 11  2  0
 11 12  1  0
 12 13  2  0
 13 14  1  0
 14 15  1  0
 15 16  1  0
 16 17  1  0
 17 18  2  0
 18 19  1  0
 19 20  2  0
 20 21  1  0
 21 22  2  0
 14 23  2  0
  9 24  2  0
  7 25  1  0
 25 26  1  0
 26 27  1  0
 27 28  1  0
 28 29  1  0
 29 30  1  0
 30 31  1  0
 31 32  1  0
 32 33  1  0
 27 34  1  0
 24  2  1  0
 24  6  1  0
 23 10  1  0
 22 17  1  0
 34 25  1  0
 33 29  1  0
M  END
>  <Molecule>  (831) 
CHEMBL1991138

>  <Standard Type>  (831) 
Ki

>  <Standard Relation>  (831) 
>

>  <Standard Value>  (831) 
1584.89

>  <Standard Units>  (831) 
nM

>  <pChEMBL Value>  (831) 
nan

>  <Comment>  (831) 
inactive

>  <Compound Key>  (831) 
SID103905464

>  <Assay>  (831) 
CHEMBL1963742

>  <Assay Description>  (831) 
PUBCHEM_BIOASSAY: Navigating the Kinome. (Class of assay: other) Panel member name: JAK3

>  <BAO Format>  (831) 
assay format

>  <Target>  (831) 
CHEMBL2148

>  <Target Pref. Name>  (831) 
Tyrosine-protein kinase JAK3

>  <Target Organism>  (831) 
Homo sapiens

>  <Target Type>  (831) 
SINGLE PROTEIN

>  <Document>  (831) 
CHEMBL1201862

>  <Source>  (831) 
PubChem BioAssays

>  <Max Phase>  (831) 
0

>  <#Ro5 Violations>  (831) 
1

>  <Molecular Weight>  (831) 
453.59

>  <Ligand Efficiency BEI>  (831) 
nan

>  <Ligand Efficiency LE>  (831) 
nan

>  <Ligand Efficiency LLE>  (831) 
nan

>  <Ligand Efficiency SEI>  (831) 
nan

>  <ALogP>  (831) 
5.15

>  <Assay Organism>  (831) 
nan

>  <Assay Tissue ChEMBL ID>  (831) 
nan

>  <Assay Tissue Name>  (831) 
nan

>  <Assay Cell Type>  (831) 
nan

>  <Assay Subcellular Fraction>  (831) 
nan

>  <Organism Tax ID>  (831) 
9606

>  <BAO Format ID>  (831) 
BAO_0000019

>  <Published Type>  (831) 
nan

>  <Published Relation>  (831) 
nan

>  <Published Value>  (831) 
nan

>  <Published Units>  (831) 
nan

>  <Canonical Smiles>  (831) 
Nc1nccn2c(nc(c3cccc(OCc4ccccc4)c3)c12)C5CC(CN6CCCC6)C5

>  <Data Validity Comment>  (831) 
nan

>  <Document Journal>  (831) 
nan

>  <Document Year>  (831) 
nan

>  <SRC ID>  (831) 
7

>  <UO Units>  (831) 
UO_0000065

>  <Potential Duplicate>  (831) 
False

>  <Class>  (831) 
0

$$$$

     RDKit          2D

 18 19  0  0  0  0  0  0  0  0999 V2000
    3.7500   -1.2990    0.0000 C   0  0  0  0  0  0  0  0  0  0  0  0
    3.0000    0.0000    0.0000 C   0  0  0  0  0  0  0  0  0  0  0  0
    3.7500    1.2990    0.0000 N   0  0  0  0  0  0  0  0  0  0  0  0
    1.5000    0.0000    0.0000 C   0  0  0  0  0  0  0  0  0  0  0  0
    0.7500   -1.2990    0.0000 C   0  0  0  0  0  0  0  0  0  0  0  0
   -0.7500   -1.2990    0.0000 C   0  0  0  0  0  0  0  0  0  0  0  0
   -1.5000    0.0000    0.0000 C   0  0  0  0  0  0  0  0  0  0  0  0
   -0.7500    1.2990    0.0000 C   0  0  0  0  0  0  0  0  0  0  0  0
    0.7500    1.2990    0.0000 C   0  0  0  0  0  0  0  0  0  0  0  0
   -3.0000    0.0000    0.0000 C   0  0  0  0  0  0  0  0  0  0  0  0
   -3.7500   -1.2990    0.0000 O   0  0  0  0  0  0  0  0  0  0  0  0
   -3.7500    1.2990    0.0000 N   0  0  0  0  0  0  0  0  0  0  0  0
   -5.2500    1.2990    0.0000 C   0  0  0  0  0  0  0  0  0  0  0  0
   -6.0000    2.5981    0.0000 C   0  0  0  0  0  0  0  0  0  0  0  0
   -7.5000    2.5981    0.0000 C   0  0  0  0  0  0  0  0  0  0  0  0
   -8.2500    1.2990    0.0000 N   0  0  0  0  0  0  0  0  0  0  0  0
   -7.5000    0.0000    0.0000 C   0  0  0  0  0  0  0  0  0  0  0  0
   -6.0000    0.0000    0.0000 C   0  0  0  0  0  0  0  0  0  0  0  0
  1  2  1  0
  2  3  1  0
  2  4  1  0
  4  5  1  0
  5  6  1  0
  6  7  1  0
  7  8  1  0
  8  9  1  0
  7 10  1  0
 10 11  2  0
 10 12  1  0
 12 13  1  0
 13 14  2  0
 14 15  1  0
 15 16  2  0
 16 17  1  0
 17 18  2  0
  9  4  1  0
 18 13  1  0
M  END
>  <Molecule>  (832) 
CHEMBL1994526

>  <Standard Type>  (832) 
Ki

>  <Standard Relation>  (832) 
>

>  <Standard Value>  (832) 
5011.87

>  <Standard Units>  (832) 
nM

>  <pChEMBL Value>  (832) 
nan

>  <Comment>  (832) 
inactive

>  <Compound Key>  (832) 
SID103904954

>  <Assay>  (832) 
CHEMBL1963742

>  <Assay Description>  (832) 
PUBCHEM_BIOASSAY: Navigating the Kinome. (Class of assay: other) Panel member name: JAK3

>  <BAO Format>  (832) 
assay format

>  <Target>  (832) 
CHEMBL2148

>  <Target Pref. Name>  (832) 
Tyrosine-protein kinase JAK3

>  <Target Organism>  (832) 
Homo sapiens

>  <Target Type>  (832) 
SINGLE PROTEIN

>  <Document>  (832) 
CHEMBL1201862

>  <Source>  (832) 
PubChem BioAssays

>  <Max Phase>  (832) 
0

>  <#Ro5 Violations>  (832) 
0

>  <Molecular Weight>  (832) 
247.34

>  <Ligand Efficiency BEI>  (832) 
nan

>  <Ligand Efficiency LE>  (832) 
nan

>  <Ligand Efficiency LLE>  (832) 
nan

>  <Ligand Efficiency SEI>  (832) 
nan

>  <ALogP>  (832) 
2.17

>  <Assay Organism>  (832) 
nan

>  <Assay Tissue ChEMBL ID>  (832) 
nan

>  <Assay Tissue Name>  (832) 
nan

>  <Assay Cell Type>  (832) 
nan

>  <Assay Subcellular Fraction>  (832) 
nan

>  <Organism Tax ID>  (832) 
9606

>  <BAO Format ID>  (832) 
BAO_0000019

>  <Published Type>  (832) 
nan

>  <Published Relation>  (832) 
nan

>  <Published Value>  (832) 
nan

>  <Published Units>  (832) 
nan

>  <Canonical Smiles>  (832) 
CC(N)C1CCC(CC1)C(=O)Nc2ccncc2

>  <Data Validity Comment>  (832) 
nan

>  <Document Journal>  (832) 
nan

>  <Document Year>  (832) 
nan

>  <SRC ID>  (832) 
7

>  <UO Units>  (832) 
UO_0000065

>  <Potential Duplicate>  (832) 
False

>  <Class>  (832) 
0

$$$$

     RDKit          2D

 23 25  0  0  0  0  0  0  0  0999 V2000
    3.7500   -1.2990    0.0000 C   0  0  0  0  0  0  0  0  0  0  0  0
    3.0000    0.0000    0.0000 O   0  0  0  0  0  0  0  0  0  0  0  0
    1.5000    0.0000    0.0000 C   0  0  0  0  0  0  0  0  0  0  0  0
    0.7500   -1.2990    0.0000 C   0  0  0  0  0  0  0  0  0  0  0  0
   -0.7500   -1.2990    0.0000 C   0  0  0  0  0  0  0  0  0  0  0  0
   -1.5000   -2.5981    0.0000 C   0  0  0  0  0  0  0  0  0  0  0  0
   -3.0000   -2.5981    0.0000 C   0  0  0  0  0  0  0  0  0  0  0  0
   -3.8817   -3.8116    0.0000 S   0  0  0  0  0  0  0  0  0  0  0  0
   -5.3083   -3.3481    0.0000 C   0  0  0  0  0  0  0  0  0  0  0  0
   -6.5218   -4.2298    0.0000 N   0  0  0  0  0  0  0  0  0  0  0  0
   -7.8921   -3.6196    0.0000 C   0  0  0  0  0  0  0  0  0  0  0  0
   -8.0489   -2.1279    0.0000 C   0  0  0  0  0  0  0  0  0  0  0  0
   -9.4192   -1.5178    0.0000 C   0  0  0  0  0  0  0  0  0  0  0  0
  -10.6327   -2.3994    0.0000 C   0  0  0  0  0  0  0  0  0  0  0  0
  -10.4760   -3.8912    0.0000 C   0  0  0  0  0  0  0  0  0  0  0  0
   -9.1056   -4.5013    0.0000 C   0  0  0  0  0  0  0  0  0  0  0  0
   -5.3083   -1.8481    0.0000 N   0  0  0  0  0  0  0  0  0  0  0  0
   -3.8817   -1.3846    0.0000 C   0  0  0  0  0  0  0  0  0  0  0  0
   -3.4182    0.0420    0.0000 O   0  0  0  0  0  0  0  0  0  0  0  0
   -1.5000    0.0000    0.0000 C   0  0  0  0  0  0  0  0  0  0  0  0
   -0.7500    1.2990    0.0000 C   0  0  0  0  0  0  0  0  0  0  0  0
    0.7500    1.2990    0.0000 C   0  0  0  0  0  0  0  0  0  0  0  0
    1.5000    2.5981    0.0000 O   0  0  0  0  0  0  0  0  0  0  0  0
  1  2  1  0
  2  3  1  0
  3  4  2  0
  4  5  1  0
  5  6  1  0
  6  7  2  3
  7  8  1  0
  8  9  1  0
  9 10  2  3
 10 11  1  0
 11 12  2  0
 12 13  1  0
 13 14  2  0
 14 15  1  0
 15 16  2  0
  9 17  1  0
 17 18  1  0
 18 19  2  0
  5 20  2  0
 20 21  1  0
 21 22  2  0
 22 23  1  0
 22  3  1  0
 18  7  1  0
 16 11  1  0
M  END
>  <Molecule>  (833) 
CHEMBL1970522

>  <Standard Type>  (833) 
Ki

>  <Standard Relation>  (833) 
>

>  <Standard Value>  (833) 
1584.89

>  <Standard Units>  (833) 
nM

>  <pChEMBL Value>  (833) 
nan

>  <Comment>  (833) 
inactive

>  <Compound Key>  (833) 
SID103905209

>  <Assay>  (833) 
CHEMBL1963742

>  <Assay Description>  (833) 
PUBCHEM_BIOASSAY: Navigating the Kinome. (Class of assay: other) Panel member name: JAK3

>  <BAO Format>  (833) 
assay format

>  <Target>  (833) 
CHEMBL2148

>  <Target Pref. Name>  (833) 
Tyrosine-protein kinase JAK3

>  <Target Organism>  (833) 
Homo sapiens

>  <Target Type>  (833) 
SINGLE PROTEIN

>  <Document>  (833) 
CHEMBL1201862

>  <Source>  (833) 
PubChem BioAssays

>  <Max Phase>  (833) 
0

>  <#Ro5 Violations>  (833) 
0

>  <Molecular Weight>  (833) 
326.38

>  <Ligand Efficiency BEI>  (833) 
nan

>  <Ligand Efficiency LE>  (833) 
nan

>  <Ligand Efficiency LLE>  (833) 
nan

>  <Ligand Efficiency SEI>  (833) 
nan

>  <ALogP>  (833) 
3.29

>  <Assay Organism>  (833) 
nan

>  <Assay Tissue ChEMBL ID>  (833) 
nan

>  <Assay Tissue Name>  (833) 
nan

>  <Assay Cell Type>  (833) 
nan

>  <Assay Subcellular Fraction>  (833) 
nan

>  <Organism Tax ID>  (833) 
9606

>  <BAO Format ID>  (833) 
BAO_0000019

>  <Published Type>  (833) 
nan

>  <Published Relation>  (833) 
nan

>  <Published Value>  (833) 
nan

>  <Published Units>  (833) 
nan

>  <Canonical Smiles>  (833) 
COc1cc(C=C2SC(=Nc3ccccc3)NC2=O)ccc1O

>  <Data Validity Comment>  (833) 
nan

>  <Document Journal>  (833) 
nan

>  <Document Year>  (833) 
nan

>  <SRC ID>  (833) 
7

>  <UO Units>  (833) 
UO_0000065

>  <Potential Duplicate>  (833) 
False

>  <Class>  (833) 
0

$$$$

     RDKit          2D

 29 32  0  0  0  0  0  0  0  0999 V2000
    3.7500  -14.2894    0.0000 C   0  0  0  0  0  0  0  0  0  0  0  0
    3.0000  -12.9904    0.0000 C   0  0  0  0  0  0  0  0  0  0  0  0
    1.5000  -12.9904    0.0000 C   0  0  0  0  0  0  0  0  0  0  0  0
    0.7500  -11.6913    0.0000 C   0  0  0  0  0  0  0  0  0  0  0  0
    1.5000  -10.3923    0.0000 C   0  0  0  0  0  0  0  0  0  0  0  0
    0.7500   -9.0933    0.0000 F   0  0  0  0  0  0  0  0  0  0  0  0
    3.0000  -10.3923    0.0000 C   0  0  0  0  0  0  0  0  0  0  0  0
    3.7500   -9.0933    0.0000 N   0  0  0  0  0  0  0  0  0  0  0  0
    3.0000   -7.7942    0.0000 C   0  0  0  0  0  0  0  0  0  0  0  0
    1.5000   -7.7942    0.0000 O   0  0  0  0  0  0  0  0  0  0  0  0
    3.7500   -6.4952    0.0000 N   0  0  0  0  0  0  0  0  0  0  0  0
    3.0000   -5.1962    0.0000 C   0  0  0  0  0  0  0  0  0  0  0  0
    3.7500   -3.8971    0.0000 C   0  0  0  0  0  0  0  0  0  0  0  0
    3.0000   -2.5981    0.0000 C   0  0  0  0  0  0  0  0  0  0  0  0
    1.5000   -2.5981    0.0000 C   0  0  0  0  0  0  0  0  0  0  0  0
    0.7500   -3.8971    0.0000 C   0  0  0  0  0  0  0  0  0  0  0  0
    1.5000   -5.1962    0.0000 C   0  0  0  0  0  0  0  0  0  0  0  0
    0.7500   -1.2990    0.0000 C   0  0  0  0  0  0  0  0  0  0  0  0
    1.5000    0.0000    0.0000 C   0  0  0  0  0  0  0  0  0  0  0  0
    0.7500    1.2990    0.0000 N   0  0  0  0  0  0  0  0  0  0  0  0
   -0.7500    1.2990    0.0000 C   0  0  0  0  0  0  0  0  0  0  0  0
   -1.5000    0.0000    0.0000 C   0  0  0  0  0  0  0  0  0  0  0  0
   -0.7500   -1.2990    0.0000 C   0  0  0  0  0  0  0  0  0  0  0  0
   -1.7537   -2.4138    0.0000 C   0  0  0  0  0  0  0  0  0  0  0  0
   -1.4418   -3.8810    0.0000 N   0  0  0  0  0  0  0  0  0  0  0  0
   -3.1240   -1.8037    0.0000 N   0  0  0  0  0  0  0  0  0  0  0  0
   -2.9672   -0.3119    0.0000 N   0  0  0  0  0  0  0  0  0  0  0  0
   -4.0819    0.6918    0.0000 C   0  0  0  0  0  0  0  0  0  0  0  0
    3.7500  -11.6913    0.0000 C   0  0  0  0  0  0  0  0  0  0  0  0
  1  2  1  0
  2  3  2  0
  3  4  1  0
  4  5  2  0
  5  6  1  0
  5  7  1  0
  7  8  1  0
  8  9  1  0
  9 10  2  0
  9 11  1  0
 11 12  1  0
 12 13  2  0
 13 14  1  0
 14 15  2  0
 15 16  1  0
 16 17  2  0
 15 18  1  0
 18 19  2  0
 19 20  1  0
 20 21  2  0
 21 22  1  0
 22 23  2  0
 23 24  1  0
 24 25  1  0
 24 26  2  0
 26 27  1  0
 27 28  1  0
  7 29  2  0
 29  2  1  0
 17 12  1  0
 23 18  1  0
 27 22  1  0
M  END
>  <Molecule>  (834) 
CHEMBL402846

>  <Standard Type>  (834) 
Ki

>  <Standard Relation>  (834) 
>

>  <Standard Value>  (834) 
1584.89

>  <Standard Units>  (834) 
nM

>  <pChEMBL Value>  (834) 
nan

>  <Comment>  (834) 
inactive

>  <Compound Key>  (834) 
SID103904338

>  <Assay>  (834) 
CHEMBL1963742

>  <Assay Description>  (834) 
PUBCHEM_BIOASSAY: Navigating the Kinome. (Class of assay: other) Panel member name: JAK3

>  <BAO Format>  (834) 
assay format

>  <Target>  (834) 
CHEMBL2148

>  <Target Pref. Name>  (834) 
Tyrosine-protein kinase JAK3

>  <Target Organism>  (834) 
Homo sapiens

>  <Target Type>  (834) 
SINGLE PROTEIN

>  <Document>  (834) 
CHEMBL1201862

>  <Source>  (834) 
PubChem BioAssays

>  <Max Phase>  (834) 
0

>  <#Ro5 Violations>  (834) 
0

>  <Molecular Weight>  (834) 
390.42

>  <Ligand Efficiency BEI>  (834) 
nan

>  <Ligand Efficiency LE>  (834) 
nan

>  <Ligand Efficiency LLE>  (834) 
nan

>  <Ligand Efficiency SEI>  (834) 
nan

>  <ALogP>  (834) 
4.31

>  <Assay Organism>  (834) 
nan

>  <Assay Tissue ChEMBL ID>  (834) 
nan

>  <Assay Tissue Name>  (834) 
nan

>  <Assay Cell Type>  (834) 
nan

>  <Assay Subcellular Fraction>  (834) 
nan

>  <Organism Tax ID>  (834) 
9606

>  <BAO Format ID>  (834) 
BAO_0000019

>  <Published Type>  (834) 
nan

>  <Published Relation>  (834) 
nan

>  <Published Value>  (834) 
nan

>  <Published Units>  (834) 
nan

>  <Canonical Smiles>  (834) 
Cc1ccc(F)c(NC(=O)Nc2ccc(cc2)c3cncc4c3c(N)nn4C)c1

>  <Data Validity Comment>  (834) 
nan

>  <Document Journal>  (834) 
nan

>  <Document Year>  (834) 
nan

>  <SRC ID>  (834) 
7

>  <UO Units>  (834) 
UO_0000065

>  <Potential Duplicate>  (834) 
False

>  <Class>  (834) 
0

$$$$

     RDKit          2D

 39 42  0  0  0  0  0  0  0  0999 V2000
   -7.8396   -9.2187    0.0000 C   0  0  0  0  0  0  0  0  0  0  0  0
   -6.3478   -9.0619    0.0000 C   0  0  0  0  0  0  0  0  0  0  0  0
   -4.8560   -8.9052    0.0000 C   0  0  0  0  0  0  0  0  0  0  0  0
   -6.1910  -10.5537    0.0000 C   0  0  0  0  0  0  0  0  0  0  0  0
   -6.5046   -7.5702    0.0000 C   0  0  0  0  0  0  0  0  0  0  0  0
   -5.3899   -6.5665    0.0000 C   0  0  0  0  0  0  0  0  0  0  0  0
   -6.0000   -5.1962    0.0000 C   0  0  0  0  0  0  0  0  0  0  0  0
   -5.2500   -3.8971    0.0000 N   0  0  0  0  0  0  0  0  0  0  0  0
   -3.7500   -3.8971    0.0000 C   0  0  0  0  0  0  0  0  0  0  0  0
   -3.0000   -5.1962    0.0000 O   0  0  0  0  0  0  0  0  0  0  0  0
   -3.0000   -2.5981    0.0000 N   0  0  0  0  0  0  0  0  0  0  0  0
   -1.5000   -2.5981    0.0000 C   0  0  0  0  0  0  0  0  0  0  0  0
   -0.7500   -3.8971    0.0000 C   0  0  0  0  0  0  0  0  0  0  0  0
    0.7500   -3.8971    0.0000 C   0  0  0  0  0  0  0  0  0  0  0  0
    1.5000   -2.5981    0.0000 C   0  0  0  0  0  0  0  0  0  0  0  0
    0.7500   -1.2990    0.0000 C   0  0  0  0  0  0  0  0  0  0  0  0
    1.5000    0.0000    0.0000 C   0  0  0  0  0  0  0  0  0  0  0  0
    0.7500    1.2990    0.0000 C   0  0  0  0  0  0  0  0  0  0  0  0
   -0.7500    1.2990    0.0000 C   0  0  0  0  0  0  0  0  0  0  0  0
   -1.5000    0.0000    0.0000 C   0  0  0  0  0  0  0  0  0  0  0  0
   -0.7500   -1.2990    0.0000 C   0  0  0  0  0  0  0  0  0  0  0  0
   -7.4918   -5.3529    0.0000 N   0  0  0  0  0  0  0  0  0  0  0  0
   -7.8037   -6.8202    0.0000 N   0  0  0  0  0  0  0  0  0  0  0  0
   -8.4955   -4.2382    0.0000 C   0  0  0  0  0  0  0  0  0  0  0  0
   -8.0320   -2.8116    0.0000 C   0  0  0  0  0  0  0  0  0  0  0  0
   -9.0356   -1.6969    0.0000 C   0  0  0  0  0  0  0  0  0  0  0  0
  -10.5029   -2.0088    0.0000 C   0  0  0  0  0  0  0  0  0  0  0  0
  -10.9664   -3.4354    0.0000 C   0  0  0  0  0  0  0  0  0  0  0  0
   -9.9627   -4.5501    0.0000 C   0  0  0  0  0  0  0  0  0  0  0  0
  -12.4336   -3.7472    0.0000 C   0  0  0  0  0  0  0  0  0  0  0  0
  -12.8971   -5.1738    0.0000 O   0  0  0  0  0  0  0  0  0  0  0  0
  -13.4373   -2.6325    0.0000 N   0  0  0  0  0  0  0  0  0  0  0  0
  -14.9045   -2.9444    0.0000 C   0  0  0  0  0  0  0  0  0  0  0  0
  -15.9082   -1.8297    0.0000 C   0  0  0  0  0  0  0  0  0  0  0  0
  -17.3755   -2.1415    0.0000 C   0  0  0  0  0  0  0  0  0  0  0  0
  -18.3791   -1.0268    0.0000 C   0  0  0  0  0  0  0  0  0  0  0  0
  -19.8464   -1.3387    0.0000 C   0  0  0  0  0  0  0  0  0  0  0  0
  -20.3099   -2.7653    0.0000 O   0  0  0  0  0  0  0  0  0  0  0  0
  -20.8501   -0.2240    0.0000 O   0  0  0  0  0  0  0  0  0  0  0  0
  1  2  1  0
  2  3  1  0
  2  4  1  0
  2  5  1  0
  5  6  1  0
  6  7  2  0
  7  8  1  0
  8  9  1  0
  9 10  2  0
  9 11  1  0
 11 12  1  0
 12 13  2  0
 13 14  1  0
 14 15  2  0
 15 16  1  0
 16 17  2  0
 17 18  1  0
 18 19  2  0
 19 20  1  0
 20 21  2  0
  7 22  1  0
 22 23  1  0
 22 24  1  0
 24 25  2  0
 25 26  1  0
 26 27  2  0
 27 28  1  0
 28 29  2  0
 28 30  1  0
 30 31  2  0
 30 32  1  0
 32 33  1  0
 33 34  1  0
 34 35  1  0
 35 36  1  0
 36 37  1  0
 37 38  2  0
 37 39  1  0
 23  5  2  0
 21 12  1  0
 21 16  1  0
 29 24  1  0
M  END
>  <Molecule>  (835) 
CHEMBL1999506

>  <Standard Type>  (835) 
Ki

>  <Standard Relation>  (835) 
>

>  <Standard Value>  (835) 
5011.87

>  <Standard Units>  (835) 
nM

>  <pChEMBL Value>  (835) 
nan

>  <Comment>  (835) 
inactive

>  <Compound Key>  (835) 
SID103904851

>  <Assay>  (835) 
CHEMBL1963742

>  <Assay Description>  (835) 
PUBCHEM_BIOASSAY: Navigating the Kinome. (Class of assay: other) Panel member name: JAK3

>  <BAO Format>  (835) 
assay format

>  <Target>  (835) 
CHEMBL2148

>  <Target Pref. Name>  (835) 
Tyrosine-protein kinase JAK3

>  <Target Organism>  (835) 
Homo sapiens

>  <Target Type>  (835) 
SINGLE PROTEIN

>  <Document>  (835) 
CHEMBL1201862

>  <Source>  (835) 
PubChem BioAssays

>  <Max Phase>  (835) 
0

>  <#Ro5 Violations>  (835) 
2

>  <Molecular Weight>  (835) 
527.63

>  <Ligand Efficiency BEI>  (835) 
nan

>  <Ligand Efficiency LE>  (835) 
nan

>  <Ligand Efficiency LLE>  (835) 
nan

>  <Ligand Efficiency SEI>  (835) 
nan

>  <ALogP>  (835) 
5.95

>  <Assay Organism>  (835) 
nan

>  <Assay Tissue ChEMBL ID>  (835) 
nan

>  <Assay Tissue Name>  (835) 
nan

>  <Assay Cell Type>  (835) 
nan

>  <Assay Subcellular Fraction>  (835) 
nan

>  <Organism Tax ID>  (835) 
9606

>  <BAO Format ID>  (835) 
BAO_0000019

>  <Published Type>  (835) 
nan

>  <Published Relation>  (835) 
nan

>  <Published Value>  (835) 
nan

>  <Published Units>  (835) 
nan

>  <Canonical Smiles>  (835) 
CC(C)(C)c1cc(NC(=O)Nc2cccc3ccccc23)n(n1)c4cccc(c4)C(=O)NCCCCC(=O)O

>  <Data Validity Comment>  (835) 
nan

>  <Document Journal>  (835) 
nan

>  <Document Year>  (835) 
nan

>  <SRC ID>  (835) 
7

>  <UO Units>  (835) 
UO_0000065

>  <Potential Duplicate>  (835) 
False

>  <Class>  (835) 
0

$$$$

     RDKit          2D

 24 27  0  0  0  0  0  0  0  0999 V2000
   -8.8320   -5.8976    0.0000 C   0  0  0  0  0  0  0  0  0  0  0  0
   -8.2219   -7.2679    0.0000 C   0  0  0  0  0  0  0  0  0  0  0  0
   -7.6118   -8.6382    0.0000 C   0  0  0  0  0  0  0  0  0  0  0  0
   -9.5922   -7.8780    0.0000 C   0  0  0  0  0  0  0  0  0  0  0  0
   -6.8516   -6.6578    0.0000 N   0  0  0  0  0  0  0  0  0  0  0  0
   -5.6381   -7.5395    0.0000 C   0  0  0  0  0  0  0  0  0  0  0  0
   -5.7949   -9.0313    0.0000 O   0  0  0  0  0  0  0  0  0  0  0  0
   -4.2677   -6.9294    0.0000 C   0  0  0  0  0  0  0  0  0  0  0  0
   -3.0542   -7.8111    0.0000 C   0  0  0  0  0  0  0  0  0  0  0  0
   -1.6839   -7.2010    0.0000 C   0  0  0  0  0  0  0  0  0  0  0  0
   -1.5271   -5.7092    0.0000 C   0  0  0  0  0  0  0  0  0  0  0  0
   -0.1568   -5.0991    0.0000 N   0  0  0  0  0  0  0  0  0  0  0  0
   -0.0000   -3.6073    0.0000 C   0  0  0  0  0  0  0  0  0  0  0  0
    1.2135   -2.7256    0.0000 N   0  0  0  0  0  0  0  0  0  0  0  0
    0.7500   -1.2990    0.0000 C   0  0  0  0  0  0  0  0  0  0  0  0
    1.5000    0.0000    0.0000 C   0  0  0  0  0  0  0  0  0  0  0  0
    0.7500    1.2990    0.0000 C   0  0  0  0  0  0  0  0  0  0  0  0
   -0.7500    1.2990    0.0000 C   0  0  0  0  0  0  0  0  0  0  0  0
   -1.5000    0.0000    0.0000 C   0  0  0  0  0  0  0  0  0  0  0  0
   -0.7500   -1.2990    0.0000 C   0  0  0  0  0  0  0  0  0  0  0  0
   -1.2135   -2.7256    0.0000 C   0  0  0  0  0  0  0  0  0  0  0  0
   -2.5838   -3.3357    0.0000 N   0  0  0  0  0  0  0  0  0  0  0  0
   -2.7406   -4.8275    0.0000 C   0  0  0  0  0  0  0  0  0  0  0  0
   -4.1110   -5.4376    0.0000 C   0  0  0  0  0  0  0  0  0  0  0  0
  1  2  1  0
  2  3  1  0
  2  4  1  0
  2  5  1  0
  5  6  1  0
  6  7  2  0
  6  8  1  0
  8  9  2  0
  9 10  1  0
 10 11  2  0
 11 12  1  0
 12 13  2  0
 13 14  1  0
 14 15  1  0
 15 16  2  0
 16 17  1  0
 17 18  2  0
 18 19  1  0
 19 20  2  0
 20 21  1  0
 21 22  2  0
 22 23  1  0
 23 24  2  0
 24  8  1  0
 23 11  1  0
 21 13  1  0
 20 15  1  0
M  END
>  <Molecule>  (836) 
CHEMBL1969264

>  <Standard Type>  (836) 
Ki

>  <Standard Relation>  (836) 
=

>  <Standard Value>  (836) 
1584.89

>  <Standard Units>  (836) 
nM

>  <pChEMBL Value>  (836) 
5.8

>  <Comment>  (836) 
active

>  <Compound Key>  (836) 
SID103905515

>  <Assay>  (836) 
CHEMBL1963742

>  <Assay Description>  (836) 
PUBCHEM_BIOASSAY: Navigating the Kinome. (Class of assay: other) Panel member name: JAK3

>  <BAO Format>  (836) 
assay format

>  <Target>  (836) 
CHEMBL2148

>  <Target Pref. Name>  (836) 
Tyrosine-protein kinase JAK3

>  <Target Organism>  (836) 
Homo sapiens

>  <Target Type>  (836) 
SINGLE PROTEIN

>  <Document>  (836) 
CHEMBL1201862

>  <Source>  (836) 
PubChem BioAssays

>  <Max Phase>  (836) 
0

>  <#Ro5 Violations>  (836) 
0

>  <Molecular Weight>  (836) 
318.38

>  <Ligand Efficiency BEI>  (836) 
nan

>  <Ligand Efficiency LE>  (836) 
nan

>  <Ligand Efficiency LLE>  (836) 
nan

>  <Ligand Efficiency SEI>  (836) 
nan

>  <ALogP>  (836) 
3.79

>  <Assay Organism>  (836) 
nan

>  <Assay Tissue ChEMBL ID>  (836) 
nan

>  <Assay Tissue Name>  (836) 
nan

>  <Assay Cell Type>  (836) 
nan

>  <Assay Subcellular Fraction>  (836) 
nan

>  <Organism Tax ID>  (836) 
9606

>  <BAO Format ID>  (836) 
BAO_0000019

>  <Published Type>  (836) 
nan

>  <Published Relation>  (836) 
nan

>  <Published Value>  (836) 
nan

>  <Published Units>  (836) 
nan

>  <Canonical Smiles>  (836) 
CC(C)(C)NC(=O)c1ccc2nc3[nH]c4ccccc4c3nc2c1

>  <Data Validity Comment>  (836) 
nan

>  <Document Journal>  (836) 
nan

>  <Document Year>  (836) 
nan

>  <SRC ID>  (836) 
7

>  <UO Units>  (836) 
UO_0000065

>  <Potential Duplicate>  (836) 
False

>  <Class>  (836) 
1

$$$$

     RDKit          2D

 32 35  0  0  0  0  0  0  0  0999 V2000
   -4.9294   -6.0000    0.0000 C   0  0  0  0  0  0  0  0  0  0  0  0
   -3.6304   -5.2500    0.0000 C   0  0  0  0  0  0  0  0  0  0  0  0
   -3.6304   -3.7500    0.0000 N   0  0  0  0  0  0  0  0  0  0  0  0
   -2.3313   -3.0000    0.0000 C   0  0  0  0  0  0  0  0  0  0  0  0
   -1.0323   -3.7500    0.0000 O   0  0  0  0  0  0  0  0  0  0  0  0
   -2.3313   -1.5000    0.0000 C   0  0  0  0  0  0  0  0  0  0  0  0
   -3.6304   -0.7500    0.0000 C   0  0  0  0  0  0  0  0  0  0  0  0
   -3.6304    0.7500    0.0000 N   0  0  0  0  0  0  0  0  0  0  0  0
   -2.3313    1.5000    0.0000 C   0  0  0  0  0  0  0  0  0  0  0  0
   -2.3313    3.0000    0.0000 N   0  0  0  0  0  0  0  0  0  0  0  0
   -1.0323    0.7500    0.0000 C   0  0  0  0  0  0  0  0  0  0  0  0
    0.3943    1.2135    0.0000 C   0  0  0  0  0  0  0  0  0  0  0  0
    1.2760    0.0000    0.0000 C   0  0  0  0  0  0  0  0  0  0  0  0
    0.3943   -1.2135    0.0000 S   0  0  0  0  0  0  0  0  0  0  0  0
   -1.0323   -0.7500    0.0000 C   0  0  0  0  0  0  0  0  0  0  0  0
    0.8578    2.6401    0.0000 C   0  0  0  0  0  0  0  0  0  0  0  0
    2.3250    2.9520    0.0000 C   0  0  0  0  0  0  0  0  0  0  0  0
    2.7886    4.3786    0.0000 C   0  0  0  0  0  0  0  0  0  0  0  0
    1.7849    5.4933    0.0000 C   0  0  0  0  0  0  0  0  0  0  0  0
    2.2484    6.9199    0.0000 N   0  0  0  0  0  0  0  0  0  0  0  0
    3.7156    7.2317    0.0000 C   0  0  0  0  0  0  0  0  0  0  0  0
    4.7193    6.1170    0.0000 O   0  0  0  0  0  0  0  0  0  0  0  0
    4.1791    8.6583    0.0000 N   0  0  0  0  0  0  0  0  0  0  0  0
    5.6464    8.9702    0.0000 C   0  0  0  0  0  0  0  0  0  0  0  0
    6.6501    7.8555    0.0000 C   0  0  0  0  0  0  0  0  0  0  0  0
    8.1173    8.1673    0.0000 C   0  0  0  0  0  0  0  0  0  0  0  0
    8.5808    9.5939    0.0000 C   0  0  0  0  0  0  0  0  0  0  0  0
    7.5771   10.7086    0.0000 C   0  0  0  0  0  0  0  0  0  0  0  0
    8.0406   12.1352    0.0000 F   0  0  0  0  0  0  0  0  0  0  0  0
    6.1099   10.3968    0.0000 C   0  0  0  0  0  0  0  0  0  0  0  0
    0.3177    5.1814    0.0000 C   0  0  0  0  0  0  0  0  0  0  0  0
   -0.1459    3.7548    0.0000 C   0  0  0  0  0  0  0  0  0  0  0  0
  1  2  1  0
  2  3  1  0
  3  4  1  0
  4  5  2  0
  4  6  1  0
  6  7  2  0
  7  8  1  0
  8  9  2  0
  9 10  1  0
  9 11  1  0
 11 12  1  0
 12 13  2  0
 13 14  1  0
 14 15  1  0
 12 16  1  0
 16 17  2  0
 17 18  1  0
 18 19  2  0
 19 20  1  0
 20 21  1  0
 21 22  2  0
 21 23  1  0
 23 24  1  0
 24 25  2  0
 25 26  1  0
 26 27  2  0
 27 28  1  0
 28 29  1  0
 28 30  2  0
 19 31  1  0
 31 32  2  0
 15  6  1  0
 15 11  2  0
 32 16  1  0
 30 24  1  0
M  END
>  <Molecule>  (837) 
CHEMBL1979516

>  <Standard Type>  (837) 
Ki

>  <Standard Relation>  (837) 
=

>  <Standard Value>  (837) 
251.19

>  <Standard Units>  (837) 
nM

>  <pChEMBL Value>  (837) 
6.6

>  <Comment>  (837) 
active

>  <Compound Key>  (837) 
SID103904336

>  <Assay>  (837) 
CHEMBL1963742

>  <Assay Description>  (837) 
PUBCHEM_BIOASSAY: Navigating the Kinome. (Class of assay: other) Panel member name: JAK3

>  <BAO Format>  (837) 
assay format

>  <Target>  (837) 
CHEMBL2148

>  <Target Pref. Name>  (837) 
Tyrosine-protein kinase JAK3

>  <Target Organism>  (837) 
Homo sapiens

>  <Target Type>  (837) 
SINGLE PROTEIN

>  <Document>  (837) 
CHEMBL1201862

>  <Source>  (837) 
PubChem BioAssays

>  <Max Phase>  (837) 
0

>  <#Ro5 Violations>  (837) 
1

>  <Molecular Weight>  (837) 
449.51

>  <Ligand Efficiency BEI>  (837) 
nan

>  <Ligand Efficiency LE>  (837) 
nan

>  <Ligand Efficiency LLE>  (837) 
nan

>  <Ligand Efficiency SEI>  (837) 
nan

>  <ALogP>  (837) 
5.08

>  <Assay Organism>  (837) 
nan

>  <Assay Tissue ChEMBL ID>  (837) 
nan

>  <Assay Tissue Name>  (837) 
nan

>  <Assay Cell Type>  (837) 
nan

>  <Assay Subcellular Fraction>  (837) 
nan

>  <Organism Tax ID>  (837) 
9606

>  <BAO Format ID>  (837) 
BAO_0000019

>  <Published Type>  (837) 
nan

>  <Published Relation>  (837) 
nan

>  <Published Value>  (837) 
nan

>  <Published Units>  (837) 
nan

>  <Canonical Smiles>  (837) 
CCNC(=O)c1cnc(N)c2c(csc12)c3ccc(NC(=O)Nc4cccc(F)c4)cc3

>  <Data Validity Comment>  (837) 
nan

>  <Document Journal>  (837) 
nan

>  <Document Year>  (837) 
nan

>  <SRC ID>  (837) 
7

>  <UO Units>  (837) 
UO_0000065

>  <Potential Duplicate>  (837) 
False

>  <Class>  (837) 
1

$$$$

     RDKit          2D

 20 22  0  0  0  0  0  0  0  0999 V2000
   -8.2194   -4.5165    0.0000 C   0  0  0  0  0  0  0  0  0  0  0  0
   -6.9204   -5.2665    0.0000 C   0  0  0  0  0  0  0  0  0  0  0  0
   -6.9204   -6.7665    0.0000 C   0  0  0  0  0  0  0  0  0  0  0  0
   -5.6213   -4.5165    0.0000 O   0  0  0  0  0  0  0  0  0  0  0  0
   -4.3223   -5.2665    0.0000 C   0  0  0  0  0  0  0  0  0  0  0  0
   -4.1655   -6.7583    0.0000 N   0  0  0  0  0  0  0  0  0  0  0  0
   -2.6983   -7.0701    0.0000 N   0  0  0  0  0  0  0  0  0  0  0  0
   -1.9483   -5.7711    0.0000 C   0  0  0  0  0  0  0  0  0  0  0  0
   -0.4565   -5.6143    0.0000 O   0  0  0  0  0  0  0  0  0  0  0  0
   -2.9520   -4.6564    0.0000 C   0  0  0  0  0  0  0  0  0  0  0  0
   -2.6401   -3.1891    0.0000 C   0  0  0  0  0  0  0  0  0  0  0  0
   -1.2135   -2.7256    0.0000 C   0  0  0  0  0  0  0  0  0  0  0  0
    0.0000   -3.6073    0.0000 C   0  0  0  0  0  0  0  0  0  0  0  0
    1.2135   -2.7256    0.0000 N   0  0  0  0  0  0  0  0  0  0  0  0
    0.7500   -1.2990    0.0000 C   0  0  0  0  0  0  0  0  0  0  0  0
    1.5000    0.0000    0.0000 C   0  0  0  0  0  0  0  0  0  0  0  0
    0.7500    1.2990    0.0000 C   0  0  0  0  0  0  0  0  0  0  0  0
   -0.7500    1.2990    0.0000 C   0  0  0  0  0  0  0  0  0  0  0  0
   -1.5000    0.0000    0.0000 C   0  0  0  0  0  0  0  0  0  0  0  0
   -0.7500   -1.2990    0.0000 C   0  0  0  0  0  0  0  0  0  0  0  0
  1  2  1  0
  2  3  1  0
  2  4  1  0
  4  5  1  0
  5  6  2  0
  6  7  1  0
  7  8  1  0
  8  9  2  0
  8 10  1  0
 10 11  2  3
 11 12  1  0
 12 13  2  0
 13 14  1  0
 14 15  1  0
 15 16  2  0
 16 17  1  0
 17 18  2  0
 18 19  1  0
 19 20  2  0
 10  5  1  0
 20 12  1  0
 20 15  1  0
M  END
>  <Molecule>  (838) 
CHEMBL1989029

>  <Standard Type>  (838) 
Ki

>  <Standard Relation>  (838) 
>

>  <Standard Value>  (838) 
1584.89

>  <Standard Units>  (838) 
nM

>  <pChEMBL Value>  (838) 
nan

>  <Comment>  (838) 
inactive

>  <Compound Key>  (838) 
SID103905114

>  <Assay>  (838) 
CHEMBL1963742

>  <Assay Description>  (838) 
PUBCHEM_BIOASSAY: Navigating the Kinome. (Class of assay: other) Panel member name: JAK3

>  <BAO Format>  (838) 
assay format

>  <Target>  (838) 
CHEMBL2148

>  <Target Pref. Name>  (838) 
Tyrosine-protein kinase JAK3

>  <Target Organism>  (838) 
Homo sapiens

>  <Target Type>  (838) 
SINGLE PROTEIN

>  <Document>  (838) 
CHEMBL1201862

>  <Source>  (838) 
PubChem BioAssays

>  <Max Phase>  (838) 
0

>  <#Ro5 Violations>  (838) 
0

>  <Molecular Weight>  (838) 
269.3

>  <Ligand Efficiency BEI>  (838) 
nan

>  <Ligand Efficiency LE>  (838) 
nan

>  <Ligand Efficiency LLE>  (838) 
nan

>  <Ligand Efficiency SEI>  (838) 
nan

>  <ALogP>  (838) 
2.42

>  <Assay Organism>  (838) 
nan

>  <Assay Tissue ChEMBL ID>  (838) 
nan

>  <Assay Tissue Name>  (838) 
nan

>  <Assay Cell Type>  (838) 
nan

>  <Assay Subcellular Fraction>  (838) 
nan

>  <Organism Tax ID>  (838) 
9606

>  <BAO Format ID>  (838) 
BAO_0000019

>  <Published Type>  (838) 
nan

>  <Published Relation>  (838) 
nan

>  <Published Value>  (838) 
nan

>  <Published Units>  (838) 
nan

>  <Canonical Smiles>  (838) 
CC(C)OC1=NNC(=O)C1=Cc2c[nH]c3ccccc23

>  <Data Validity Comment>  (838) 
nan

>  <Document Journal>  (838) 
nan

>  <Document Year>  (838) 
nan

>  <SRC ID>  (838) 
7

>  <UO Units>  (838) 
UO_0000065

>  <Potential Duplicate>  (838) 
False

>  <Class>  (838) 
0

$$$$

     RDKit          2D

 20 21  0  0  0  0  0  0  0  0999 V2000
    6.0000   -2.5981    0.0000 C   0  0  0  0  0  0  0  0  0  0  0  0
    5.2500   -1.2990    0.0000 C   0  0  0  0  0  0  0  0  0  0  0  0
    3.7500   -1.2990    0.0000 C   0  0  0  0  0  0  0  0  0  0  0  0
    3.0000   -2.5981    0.0000 O   0  0  0  0  0  0  0  0  0  0  0  0
    3.0000    0.0000    0.0000 N   0  0  0  0  0  0  0  0  0  0  0  0
    1.5000    0.0000    0.0000 C   0  0  0  0  0  0  0  0  0  0  0  0
    0.7500   -1.2990    0.0000 C   0  0  0  0  0  0  0  0  0  0  0  0
   -0.7500   -1.2990    0.0000 C   0  0  0  0  0  0  0  0  0  0  0  0
   -1.5000    0.0000    0.0000 C   0  0  0  0  0  0  0  0  0  0  0  0
   -3.0000    0.0000    0.0000 C   0  0  0  0  0  0  0  0  0  0  0  0
   -3.7500   -1.2990    0.0000 O   0  0  0  0  0  0  0  0  0  0  0  0
   -3.7500    1.2990    0.0000 N   0  0  0  0  0  0  0  0  0  0  0  0
   -3.0000    2.5981    0.0000 C   0  0  0  0  0  0  0  0  0  0  0  0
   -3.7500    3.8971    0.0000 C   0  0  0  0  0  0  0  0  0  0  0  0
   -5.2500    3.8971    0.0000 N   0  0  0  0  0  0  0  0  0  0  0  0
   -6.0000    2.5981    0.0000 C   0  0  0  0  0  0  0  0  0  0  0  0
   -5.2500    1.2990    0.0000 C   0  0  0  0  0  0  0  0  0  0  0  0
   -0.7500    1.2990    0.0000 C   0  0  0  0  0  0  0  0  0  0  0  0
   -1.5000    2.5981    0.0000 O   0  0  0  0  0  0  0  0  0  0  0  0
    0.7500    1.2990    0.0000 C   0  0  0  0  0  0  0  0  0  0  0  0
  1  2  1  0
  2  3  1  0
  3  4  2  0
  3  5  1  0
  5  6  1  0
  6  7  2  0
  7  8  1  0
  8  9  2  0
  9 10  1  0
 10 11  2  0
 10 12  1  0
 12 13  1  0
 13 14  1  0
 14 15  1  0
 15 16  1  0
 16 17  1  0
  9 18  1  0
 18 19  1  0
 18 20  2  0
 20  6  1  0
 17 12  1  0
M  END
>  <Molecule>  (839) 
CHEMBL1988141

>  <Standard Type>  (839) 
Ki

>  <Standard Relation>  (839) 
=

>  <Standard Value>  (839) 
630.96

>  <Standard Units>  (839) 
nM

>  <pChEMBL Value>  (839) 
6.2

>  <Comment>  (839) 
active

>  <Compound Key>  (839) 
SID103905552

>  <Assay>  (839) 
CHEMBL1963742

>  <Assay Description>  (839) 
PUBCHEM_BIOASSAY: Navigating the Kinome. (Class of assay: other) Panel member name: JAK3

>  <BAO Format>  (839) 
assay format

>  <Target>  (839) 
CHEMBL2148

>  <Target Pref. Name>  (839) 
Tyrosine-protein kinase JAK3

>  <Target Organism>  (839) 
Homo sapiens

>  <Target Type>  (839) 
SINGLE PROTEIN

>  <Document>  (839) 
CHEMBL1201862

>  <Source>  (839) 
PubChem BioAssays

>  <Max Phase>  (839) 
0

>  <#Ro5 Violations>  (839) 
0

>  <Molecular Weight>  (839) 
277.32

>  <Ligand Efficiency BEI>  (839) 
nan

>  <Ligand Efficiency LE>  (839) 
nan

>  <Ligand Efficiency LLE>  (839) 
nan

>  <Ligand Efficiency SEI>  (839) 
nan

>  <ALogP>  (839) 
0.79

>  <Assay Organism>  (839) 
nan

>  <Assay Tissue ChEMBL ID>  (839) 
nan

>  <Assay Tissue Name>  (839) 
nan

>  <Assay Cell Type>  (839) 
nan

>  <Assay Subcellular Fraction>  (839) 
nan

>  <Organism Tax ID>  (839) 
9606

>  <BAO Format ID>  (839) 
BAO_0000019

>  <Published Type>  (839) 
nan

>  <Published Relation>  (839) 
nan

>  <Published Value>  (839) 
nan

>  <Published Units>  (839) 
nan

>  <Canonical Smiles>  (839) 
CCC(=O)Nc1ccc(C(=O)N2CCNCC2)c(O)c1

>  <Data Validity Comment>  (839) 
nan

>  <Document Journal>  (839) 
nan

>  <Document Year>  (839) 
nan

>  <SRC ID>  (839) 
7

>  <UO Units>  (839) 
UO_0000065

>  <Potential Duplicate>  (839) 
False

>  <Class>  (839) 
1

$$$$

     RDKit          2D

 38 43  0  0  0  0  0  0  0  0999 V2000
    0.0071  -11.5493    0.0000 O   0  0  0  0  0  0  0  0  0  0  0  0
    1.3774  -10.9392    0.0000 C   0  0  0  0  0  0  0  0  0  0  0  0
    1.5342   -9.4474    0.0000 C   0  0  0  0  0  0  0  0  0  0  0  0
    0.3207   -8.5658    0.0000 C   0  0  0  0  0  0  0  0  0  0  0  0
    0.4775   -7.0740    0.0000 C   0  0  0  0  0  0  0  0  0  0  0  0
    1.8478   -6.4639    0.0000 C   0  0  0  0  0  0  0  0  0  0  0  0
    3.0613   -7.3456    0.0000 C   0  0  0  0  0  0  0  0  0  0  0  0
    2.9046   -8.8373    0.0000 C   0  0  0  0  0  0  0  0  0  0  0  0
    2.0046   -4.9721    0.0000 C   0  0  0  0  0  0  0  0  0  0  0  0
    0.8899   -3.9684    0.0000 S   0  0  0  0  0  0  0  0  0  0  0  0
    1.5000   -2.5981    0.0000 C   0  0  0  0  0  0  0  0  0  0  0  0
    2.9918   -2.7549    0.0000 N   0  0  0  0  0  0  0  0  0  0  0  0
    3.3037   -4.2221    0.0000 C   0  0  0  0  0  0  0  0  0  0  0  0
    4.6740   -4.8322    0.0000 C   0  0  0  0  0  0  0  0  0  0  0  0
    4.8308   -6.3240    0.0000 O   0  0  0  0  0  0  0  0  0  0  0  0
    5.8875   -3.9505    0.0000 O   0  0  0  0  0  0  0  0  0  0  0  0
    0.7500   -1.2990    0.0000 N   0  0  0  0  0  0  0  0  0  0  0  0
    1.5000    0.0000    0.0000 C   0  0  0  0  0  0  0  0  0  0  0  0
    0.7500    1.2990    0.0000 C   0  0  0  0  0  0  0  0  0  0  0  0
   -0.7500    1.2990    0.0000 C   0  0  0  0  0  0  0  0  0  0  0  0
   -1.5000    2.5981    0.0000 C   0  0  0  0  0  0  0  0  0  0  0  0
   -3.0000    2.5981    0.0000 C   0  0  0  0  0  0  0  0  0  0  0  0
   -3.7500    1.2990    0.0000 C   0  0  0  0  0  0  0  0  0  0  0  0
   -3.0000    0.0000    0.0000 C   0  0  0  0  0  0  0  0  0  0  0  0
   -3.7500   -1.2990    0.0000 C   0  0  0  0  0  0  0  0  0  0  0  0
   -3.0000   -2.5981    0.0000 O   0  0  0  0  0  0  0  0  0  0  0  0
   -5.2500   -1.2990    0.0000 N   0  0  0  0  0  0  0  0  0  0  0  0
   -6.0000   -2.5981    0.0000 C   0  0  0  0  0  0  0  0  0  0  0  0
   -7.4918   -2.7549    0.0000 N   0  0  0  0  0  0  0  0  0  0  0  0
   -7.8037   -4.2221    0.0000 C   0  0  0  0  0  0  0  0  0  0  0  0
   -9.1027   -4.9721    0.0000 C   0  0  0  0  0  0  0  0  0  0  0  0
   -9.1027   -6.4721    0.0000 C   0  0  0  0  0  0  0  0  0  0  0  0
   -7.8037   -7.2221    0.0000 C   0  0  0  0  0  0  0  0  0  0  0  0
   -6.5046   -6.4721    0.0000 C   0  0  0  0  0  0  0  0  0  0  0  0
   -6.5046   -4.9721    0.0000 C   0  0  0  0  0  0  0  0  0  0  0  0
   -5.3899   -3.9684    0.0000 S   0  0  0  0  0  0  0  0  0  0  0  0
   -1.5000    0.0000    0.0000 C   0  0  0  0  0  0  0  0  0  0  0  0
   -0.7500   -1.2990    0.0000 C   0  0  0  0  0  0  0  0  0  0  0  0
  1  2  1  0
  2  3  1  0
  3  4  2  0
  4  5  1  0
  5  6  2  0
  6  7  1  0
  7  8  2  0
  6  9  1  0
  9 10  1  0
 10 11  1  0
 11 12  2  0
 12 13  1  0
 13 14  1  0
 14 15  2  0
 14 16  1  0
 11 17  1  0
 17 18  1  0
 18 19  1  0
 19 20  1  0
 20 21  2  0
 21 22  1  0
 22 23  2  0
 23 24  1  0
 24 25  1  0
 25 26  2  0
 25 27  1  0
 27 28  1  0
 28 29  2  0
 29 30  1  0
 30 31  2  0
 31 32  1  0
 32 33  2  0
 33 34  1  0
 34 35  2  0
 35 36  1  0
 24 37  2  0
 37 38  1  0
  8  3  1  0
 13  9  2  0
 38 17  1  0
 37 20  1  0
 36 28  1  0
 35 30  1  0
M  END
>  <Molecule>  (840) 
CHEMBL1983980

>  <Standard Type>  (840) 
Ki

>  <Standard Relation>  (840) 
=

>  <Standard Value>  (840) 
5011.87

>  <Standard Units>  (840) 
nM

>  <pChEMBL Value>  (840) 
5.3

>  <Comment>  (840) 
active

>  <Compound Key>  (840) 
SID103905560

>  <Assay>  (840) 
CHEMBL1963742

>  <Assay Description>  (840) 
PUBCHEM_BIOASSAY: Navigating the Kinome. (Class of assay: other) Panel member name: JAK3

>  <BAO Format>  (840) 
assay format

>  <Target>  (840) 
CHEMBL2148

>  <Target Pref. Name>  (840) 
Tyrosine-protein kinase JAK3

>  <Target Organism>  (840) 
Homo sapiens

>  <Target Type>  (840) 
SINGLE PROTEIN

>  <Document>  (840) 
CHEMBL1201862

>  <Source>  (840) 
PubChem BioAssays

>  <Max Phase>  (840) 
0

>  <#Ro5 Violations>  (840) 
2

>  <Molecular Weight>  (840) 
542.64

>  <Ligand Efficiency BEI>  (840) 
nan

>  <Ligand Efficiency LE>  (840) 
nan

>  <Ligand Efficiency LLE>  (840) 
nan

>  <Ligand Efficiency SEI>  (840) 
nan

>  <ALogP>  (840) 
5.43

>  <Assay Organism>  (840) 
nan

>  <Assay Tissue ChEMBL ID>  (840) 
nan

>  <Assay Tissue Name>  (840) 
nan

>  <Assay Cell Type>  (840) 
nan

>  <Assay Subcellular Fraction>  (840) 
nan

>  <Organism Tax ID>  (840) 
9606

>  <BAO Format ID>  (840) 
BAO_0000019

>  <Published Type>  (840) 
nan

>  <Published Relation>  (840) 
nan

>  <Published Value>  (840) 
nan

>  <Published Units>  (840) 
nan

>  <Canonical Smiles>  (840) 
OCc1ccc(cc1)c2sc(nc2C(=O)O)N3CCc4cccc(C(=O)Nc5nc6ccccc6s5)c4C3

>  <Data Validity Comment>  (840) 
nan

>  <Document Journal>  (840) 
nan

>  <Document Year>  (840) 
nan

>  <SRC ID>  (840) 
7

>  <UO Units>  (840) 
UO_0000065

>  <Potential Duplicate>  (840) 
False

>  <Class>  (840) 
1

$$$$

     RDKit          2D

 30 33  0  0  0  0  0  0  0  0999 V2000
    3.0000    0.0000    0.0000 N   0  0  0  0  0  0  0  0  0  0  0  0
    1.5000    0.0000    0.0000 C   0  0  0  0  0  0  0  0  0  0  0  0
    0.7500   -1.2990    0.0000 N   0  0  0  0  0  0  0  0  0  0  0  0
   -0.7500   -1.2990    0.0000 C   0  0  0  0  0  0  0  0  0  0  0  0
   -1.5000    0.0000    0.0000 C   0  0  0  0  0  0  0  0  0  0  0  0
   -0.7500    1.2990    0.0000 C   0  0  0  0  0  0  0  0  0  0  0  0
   -1.2135    2.7256    0.0000 S   0  0  0  0  0  0  0  0  0  0  0  0
   -0.0000    3.6073    0.0000 C   0  0  0  0  0  0  0  0  0  0  0  0
    1.2135    2.7256    0.0000 C   0  0  0  0  0  0  0  0  0  0  0  0
    2.6401    3.1891    0.0000 C   0  0  0  0  0  0  0  0  0  0  0  0
    3.7548    2.1855    0.0000 C   0  0  0  0  0  0  0  0  0  0  0  0
    5.1814    2.6490    0.0000 C   0  0  0  0  0  0  0  0  0  0  0  0
    5.4933    4.1162    0.0000 C   0  0  0  0  0  0  0  0  0  0  0  0
    6.9199    4.5797    0.0000 N   0  0  0  0  0  0  0  0  0  0  0  0
    8.0346    3.5760    0.0000 C   0  0  0  0  0  0  0  0  0  0  0  0
    7.7227    2.1088    0.0000 O   0  0  0  0  0  0  0  0  0  0  0  0
    9.4612    4.0396    0.0000 N   0  0  0  0  0  0  0  0  0  0  0  0
   10.5759    3.0359    0.0000 C   0  0  0  0  0  0  0  0  0  0  0  0
   10.2640    1.5686    0.0000 C   0  0  0  0  0  0  0  0  0  0  0  0
   11.3787    0.5649    0.0000 C   0  0  0  0  0  0  0  0  0  0  0  0
   12.8053    1.0285    0.0000 C   0  0  0  0  0  0  0  0  0  0  0  0
   13.1172    2.4957    0.0000 C   0  0  0  0  0  0  0  0  0  0  0  0
   12.0025    3.4994    0.0000 C   0  0  0  0  0  0  0  0  0  0  0  0
   12.3143    4.9666    0.0000 C   0  0  0  0  0  0  0  0  0  0  0  0
   12.6262    6.4338    0.0000 F   0  0  0  0  0  0  0  0  0  0  0  0
   13.7816    4.6547    0.0000 F   0  0  0  0  0  0  0  0  0  0  0  0
   10.8471    5.2785    0.0000 F   0  0  0  0  0  0  0  0  0  0  0  0
    4.3786    5.1199    0.0000 C   0  0  0  0  0  0  0  0  0  0  0  0
    2.9520    4.6564    0.0000 C   0  0  0  0  0  0  0  0  0  0  0  0
    0.7500    1.2990    0.0000 C   0  0  0  0  0  0  0  0  0  0  0  0
  1  2  1  0
  2  3  2  0
  3  4  1  0
  4  5  2  0
  5  6  1  0
  6  7  1  0
  7  8  1  0
  8  9  2  0
  9 10  1  0
 10 11  2  0
 11 12  1  0
 12 13  2  0
 13 14  1  0
 14 15  1  0
 15 16  2  0
 15 17  1  0
 17 18  1  0
 18 19  2  0
 19 20  1  0
 20 21  2  0
 21 22  1  0
 22 23  2  0
 23 24  1  0
 24 25  1  0
 24 26  1  0
 24 27  1  0
 13 28  1  0
 28 29  2  0
  9 30  1  0
 30  2  1  0
 30  6  2  0
 29 10  1  0
 23 18  1  0
M  END
>  <Molecule>  (841) 
CHEMBL1987910

>  <Standard Type>  (841) 
Ki

>  <Standard Relation>  (841) 
>

>  <Standard Value>  (841) 
1584.89

>  <Standard Units>  (841) 
nM

>  <pChEMBL Value>  (841) 
nan

>  <Comment>  (841) 
inactive

>  <Compound Key>  (841) 
SID103904327

>  <Assay>  (841) 
CHEMBL1963742

>  <Assay Description>  (841) 
PUBCHEM_BIOASSAY: Navigating the Kinome. (Class of assay: other) Panel member name: JAK3

>  <BAO Format>  (841) 
assay format

>  <Target>  (841) 
CHEMBL2148

>  <Target Pref. Name>  (841) 
Tyrosine-protein kinase JAK3

>  <Target Organism>  (841) 
Homo sapiens

>  <Target Type>  (841) 
SINGLE PROTEIN

>  <Document>  (841) 
CHEMBL1201862

>  <Source>  (841) 
PubChem BioAssays

>  <Max Phase>  (841) 
0

>  <#Ro5 Violations>  (841) 
1

>  <Molecular Weight>  (841) 
428.44

>  <Ligand Efficiency BEI>  (841) 
nan

>  <Ligand Efficiency LE>  (841) 
nan

>  <Ligand Efficiency LLE>  (841) 
nan

>  <Ligand Efficiency SEI>  (841) 
nan

>  <ALogP>  (841) 
6.21

>  <Assay Organism>  (841) 
nan

>  <Assay Tissue ChEMBL ID>  (841) 
nan

>  <Assay Tissue Name>  (841) 
nan

>  <Assay Cell Type>  (841) 
nan

>  <Assay Subcellular Fraction>  (841) 
nan

>  <Organism Tax ID>  (841) 
9606

>  <BAO Format ID>  (841) 
BAO_0000019

>  <Published Type>  (841) 
nan

>  <Published Relation>  (841) 
nan

>  <Published Value>  (841) 
nan

>  <Published Units>  (841) 
nan

>  <Canonical Smiles>  (841) 
Nc1nccc2scc(c3ccc(NC(=O)Nc4ccccc4C(F)(F)F)cc3)c12

>  <Data Validity Comment>  (841) 
nan

>  <Document Journal>  (841) 
nan

>  <Document Year>  (841) 
nan

>  <SRC ID>  (841) 
7

>  <UO Units>  (841) 
UO_0000065

>  <Potential Duplicate>  (841) 
False

>  <Class>  (841) 
0

$$$$

     RDKit          2D

 24 26  0  0  0  0  0  0  0  0999 V2000
   -9.4612   -4.0396    0.0000 C   0  0  0  0  0  0  0  0  0  0  0  0
   -8.0346   -3.5760    0.0000 C   0  0  0  0  0  0  0  0  0  0  0  0
   -6.9199   -4.5797    0.0000 C   0  0  0  0  0  0  0  0  0  0  0  0
   -5.4933   -4.1162    0.0000 C   0  0  0  0  0  0  0  0  0  0  0  0
   -5.1814   -2.6490    0.0000 C   0  0  0  0  0  0  0  0  0  0  0  0
   -6.2961   -1.6453    0.0000 C   0  0  0  0  0  0  0  0  0  0  0  0
   -7.7227   -2.1088    0.0000 C   0  0  0  0  0  0  0  0  0  0  0  0
   -3.7548   -2.1855    0.0000 C   0  0  0  0  0  0  0  0  0  0  0  0
   -3.6241   -0.6912    0.0000 O   0  0  0  0  0  0  0  0  0  0  0  0
   -2.6401   -3.1891    0.0000 N   0  0  0  0  0  0  0  0  0  0  0  0
   -1.2135   -2.7256    0.0000 C   0  0  0  0  0  0  0  0  0  0  0  0
    0.0000   -3.6073    0.0000 C   0  0  0  0  0  0  0  0  0  0  0  0
    1.2135   -2.7256    0.0000 S   0  0  0  0  0  0  0  0  0  0  0  0
    0.7500   -1.2990    0.0000 C   0  0  0  0  0  0  0  0  0  0  0  0
    1.5000    0.0000    0.0000 C   0  0  0  0  0  0  0  0  0  0  0  0
    0.7500    1.2990    0.0000 C   0  0  0  0  0  0  0  0  0  0  0  0
   -0.7500    1.2990    0.0000 C   0  0  0  0  0  0  0  0  0  0  0  0
   -1.5000    2.5981    0.0000 Cl  0  0  0  0  0  0  0  0  0  0  0  0
   -1.5000    0.0000    0.0000 C   0  0  0  0  0  0  0  0  0  0  0  0
   -2.9888    0.1828    0.0000 Cl  0  0  0  0  0  0  0  0  0  0  0  0
   -0.7500   -1.2990    0.0000 C   0  0  0  0  0  0  0  0  0  0  0  0
    0.0000   -5.1073    0.0000 C   0  0  0  0  0  0  0  0  0  0  0  0
   -1.2990   -5.8573    0.0000 O   0  0  0  0  0  0  0  0  0  0  0  0
    1.2990   -5.8573    0.0000 N   0  0  0  0  0  0  0  0  0  0  0  0
  1  2  1  0
  2  3  2  0
  3  4  1  0
  4  5  2  0
  5  6  1  0
  6  7  2  0
  5  8  1  0
  8  9  2  0
  8 10  1  0
 10 11  1  0
 11 12  2  0
 12 13  1  0
 13 14  1  0
 14 15  2  0
 15 16  1  0
 16 17  2  0
 17 18  1  0
 17 19  1  0
 19 20  1  0
 19 21  2  0
 12 22  1  0
 22 23  2  0
 22 24  1  0
  7  2  1  0
 21 11  1  0
 21 14  1  0
M  END
>  <Molecule>  (842) 
CHEMBL1965131

>  <Standard Type>  (842) 
Ki

>  <Standard Relation>  (842) 
>

>  <Standard Value>  (842) 
1584.89

>  <Standard Units>  (842) 
nM

>  <pChEMBL Value>  (842) 
nan

>  <Comment>  (842) 
inactive

>  <Compound Key>  (842) 
SID103904746

>  <Assay>  (842) 
CHEMBL1963742

>  <Assay Description>  (842) 
PUBCHEM_BIOASSAY: Navigating the Kinome. (Class of assay: other) Panel member name: JAK3

>  <BAO Format>  (842) 
assay format

>  <Target>  (842) 
CHEMBL2148

>  <Target Pref. Name>  (842) 
Tyrosine-protein kinase JAK3

>  <Target Organism>  (842) 
Homo sapiens

>  <Target Type>  (842) 
SINGLE PROTEIN

>  <Document>  (842) 
CHEMBL1201862

>  <Source>  (842) 
PubChem BioAssays

>  <Max Phase>  (842) 
0

>  <#Ro5 Violations>  (842) 
0

>  <Molecular Weight>  (842) 
379.27

>  <Ligand Efficiency BEI>  (842) 
nan

>  <Ligand Efficiency LE>  (842) 
nan

>  <Ligand Efficiency LLE>  (842) 
nan

>  <Ligand Efficiency SEI>  (842) 
nan

>  <ALogP>  (842) 
4.87

>  <Assay Organism>  (842) 
nan

>  <Assay Tissue ChEMBL ID>  (842) 
nan

>  <Assay Tissue Name>  (842) 
nan

>  <Assay Cell Type>  (842) 
nan

>  <Assay Subcellular Fraction>  (842) 
nan

>  <Organism Tax ID>  (842) 
9606

>  <BAO Format ID>  (842) 
BAO_0000019

>  <Published Type>  (842) 
nan

>  <Published Relation>  (842) 
nan

>  <Published Value>  (842) 
nan

>  <Published Units>  (842) 
nan

>  <Canonical Smiles>  (842) 
Cc1ccc(cc1)C(=O)Nc2c(sc3ccc(Cl)c(Cl)c23)C(=O)N

>  <Data Validity Comment>  (842) 
nan

>  <Document Journal>  (842) 
nan

>  <Document Year>  (842) 
nan

>  <SRC ID>  (842) 
7

>  <UO Units>  (842) 
UO_0000065

>  <Potential Duplicate>  (842) 
False

>  <Class>  (842) 
0

$$$$

     RDKit          2D

 16 18  0  0  0  0  0  0  0  0999 V2000
   -0.0000   -5.1073    0.0000 O   0  0  0  0  0  0  0  0  0  0  0  0
   -0.0000   -3.6073    0.0000 C   0  0  0  0  0  0  0  0  0  0  0  0
    1.2135   -2.7256    0.0000 N   0  0  0  0  0  0  0  0  0  0  0  0
    0.7500   -1.2990    0.0000 C   0  0  0  0  0  0  0  0  0  0  0  0
    1.5000    0.0000    0.0000 C   0  0  0  0  0  0  0  0  0  0  0  0
    0.7500    1.2990    0.0000 C   0  0  0  0  0  0  0  0  0  0  0  0
   -0.7500    1.2990    0.0000 C   0  0  0  0  0  0  0  0  0  0  0  0
   -1.5000    0.0000    0.0000 C   0  0  0  0  0  0  0  0  0  0  0  0
   -0.7500   -1.2990    0.0000 C   0  0  0  0  0  0  0  0  0  0  0  0
   -1.2135   -2.7256    0.0000 C   0  0  0  0  0  0  0  0  0  0  0  0
   -2.6401   -3.1891    0.0000 C   0  0  0  0  0  0  0  0  0  0  0  0
   -2.9520   -4.6564    0.0000 C   0  0  0  0  0  0  0  0  0  0  0  0
   -1.9483   -5.7711    0.0000 C   0  0  0  0  0  0  0  0  0  0  0  0
   -2.6983   -7.0701    0.0000 C   0  0  0  0  0  0  0  0  0  0  0  0
   -4.1655   -6.7583    0.0000 C   0  0  0  0  0  0  0  0  0  0  0  0
   -4.3223   -5.2665    0.0000 N   0  0  0  0  0  0  0  0  0  0  0  0
  1  2  2  0
  2  3  1  0
  3  4  1  0
  4  5  2  0
  5  6  1  0
  6  7  2  0
  7  8  1  0
  8  9  2  0
  9 10  1  0
 10 11  2  3
 11 12  1  0
 12 13  2  0
 13 14  1  0
 14 15  2  0
 15 16  1  0
 10  2  1  0
  9  4  1  0
 16 12  1  0
M  END
>  <Molecule>  (843) 
CHEMBL1996176

>  <Standard Type>  (843) 
Ki

>  <Standard Relation>  (843) 
=

>  <Standard Value>  (843) 
2511.89

>  <Standard Units>  (843) 
nM

>  <pChEMBL Value>  (843) 
5.6

>  <Comment>  (843) 
active

>  <Compound Key>  (843) 
SID103905115

>  <Assay>  (843) 
CHEMBL1963742

>  <Assay Description>  (843) 
PUBCHEM_BIOASSAY: Navigating the Kinome. (Class of assay: other) Panel member name: JAK3

>  <BAO Format>  (843) 
assay format

>  <Target>  (843) 
CHEMBL2148

>  <Target Pref. Name>  (843) 
Tyrosine-protein kinase JAK3

>  <Target Organism>  (843) 
Homo sapiens

>  <Target Type>  (843) 
SINGLE PROTEIN

>  <Document>  (843) 
CHEMBL1201862

>  <Source>  (843) 
PubChem BioAssays

>  <Max Phase>  (843) 
0

>  <#Ro5 Violations>  (843) 
0

>  <Molecular Weight>  (843) 
210.24

>  <Ligand Efficiency BEI>  (843) 
nan

>  <Ligand Efficiency LE>  (843) 
nan

>  <Ligand Efficiency LLE>  (843) 
nan

>  <Ligand Efficiency SEI>  (843) 
nan

>  <ALogP>  (843) 
2.51

>  <Assay Organism>  (843) 
nan

>  <Assay Tissue ChEMBL ID>  (843) 
nan

>  <Assay Tissue Name>  (843) 
nan

>  <Assay Cell Type>  (843) 
nan

>  <Assay Subcellular Fraction>  (843) 
nan

>  <Organism Tax ID>  (843) 
9606

>  <BAO Format ID>  (843) 
BAO_0000019

>  <Published Type>  (843) 
nan

>  <Published Relation>  (843) 
nan

>  <Published Value>  (843) 
nan

>  <Published Units>  (843) 
nan

>  <Canonical Smiles>  (843) 
O=C1Nc2ccccc2C1=Cc3ccc[nH]3

>  <Data Validity Comment>  (843) 
nan

>  <Document Journal>  (843) 
nan

>  <Document Year>  (843) 
nan

>  <SRC ID>  (843) 
7

>  <UO Units>  (843) 
UO_0000065

>  <Potential Duplicate>  (843) 
False

>  <Class>  (843) 
1

$$$$

     RDKit          2D

 33 36  0  0  0  0  0  0  0  0999 V2000
    5.2500   -1.2990    0.0000 C   0  0  0  0  0  0  0  0  0  0  0  0
    3.7500   -1.2990    0.0000 N   0  0  0  0  0  0  0  0  0  0  0  0
    3.0000    0.0000    0.0000 C   0  0  0  0  0  0  0  0  0  0  0  0
    3.7500    1.2990    0.0000 O   0  0  0  0  0  0  0  0  0  0  0  0
    1.5000    0.0000    0.0000 C   0  0  0  0  0  0  0  0  0  0  0  0
    0.7500   -1.2990    0.0000 C   0  0  0  0  0  0  0  0  0  0  0  0
   -0.7500   -1.2990    0.0000 C   0  0  0  0  0  0  0  0  0  0  0  0
   -1.5000    0.0000    0.0000 C   0  0  0  0  0  0  0  0  0  0  0  0
   -0.7500    1.2990    0.0000 C   0  0  0  0  0  0  0  0  0  0  0  0
    0.7500    1.2990    0.0000 C   0  0  0  0  0  0  0  0  0  0  0  0
    1.5000    2.5981    0.0000 N   0  0  0  0  0  0  0  0  0  0  0  0
    0.7500    3.8971    0.0000 C   0  0  0  0  0  0  0  0  0  0  0  0
    1.5000    5.1962    0.0000 N   0  0  0  0  0  0  0  0  0  0  0  0
    0.7500    6.4952    0.0000 C   0  0  0  0  0  0  0  0  0  0  0  0
    1.5000    7.7942    0.0000 N   0  0  0  0  0  0  0  0  0  0  0  0
    3.0000    7.7942    0.0000 C   0  0  0  0  0  0  0  0  0  0  0  0
    3.7500    6.4952    0.0000 C   0  0  0  0  0  0  0  0  0  0  0  0
    5.2500    6.4952    0.0000 C   0  0  0  0  0  0  0  0  0  0  0  0
    6.0000    7.7942    0.0000 C   0  0  0  0  0  0  0  0  0  0  0  0
    5.2500    9.0933    0.0000 C   0  0  0  0  0  0  0  0  0  0  0  0
    3.7500    9.0933    0.0000 C   0  0  0  0  0  0  0  0  0  0  0  0
    3.0000   10.3923    0.0000 O   0  0  0  0  0  0  0  0  0  0  0  0
    3.7500   11.6913    0.0000 C   0  0  0  0  0  0  0  0  0  0  0  0
    7.5000    7.7942    0.0000 N   0  0  0  0  0  0  0  0  0  0  0  0
    8.2500    6.4952    0.0000 C   0  0  0  0  0  0  0  0  0  0  0  0
    9.7500    6.4952    0.0000 C   0  0  0  0  0  0  0  0  0  0  0  0
   10.5000    7.7942    0.0000 O   0  0  0  0  0  0  0  0  0  0  0  0
    9.7500    9.0933    0.0000 C   0  0  0  0  0  0  0  0  0  0  0  0
    8.2500    9.0933    0.0000 C   0  0  0  0  0  0  0  0  0  0  0  0
   -0.7500    6.4952    0.0000 N   0  0  0  0  0  0  0  0  0  0  0  0
   -1.5000    5.1962    0.0000 C   0  0  0  0  0  0  0  0  0  0  0  0
   -0.7500    3.8971    0.0000 C   0  0  0  0  0  0  0  0  0  0  0  0
   -1.5000    2.5981    0.0000 Cl  0  0  0  0  0  0  0  0  0  0  0  0
  1  2  1  0
  2  3  1  0
  3  4  2  0
  3  5  1  0
  5  6  2  0
  6  7  1  0
  7  8  2  0
  8  9  1  0
  9 10  2  0
 10 11  1  0
 11 12  1  0
 12 13  2  0
 13 14  1  0
 14 15  1  0
 15 16  1  0
 16 17  2  0
 17 18  1  0
 18 19  2  0
 19 20  1  0
 20 21  2  0
 21 22  1  0
 22 23  1  0
 19 24  1  0
 24 25  1  0
 25 26  1  0
 26 27  1  0
 27 28  1  0
 28 29  1  0
 14 30  2  0
 30 31  1  0
 31 32  2  0
 32 33  1  0
 10  5  1  0
 32 12  1  0
 21 16  1  0
 29 24  1  0
M  END
>  <Molecule>  (844) 
CHEMBL458997

>  <Standard Type>  (844) 
Ki

>  <Standard Relation>  (844) 
>

>  <Standard Value>  (844) 
2511.89

>  <Standard Units>  (844) 
nM

>  <pChEMBL Value>  (844) 
nan

>  <Comment>  (844) 
inactive

>  <Compound Key>  (844) 
SID103904601

>  <Assay>  (844) 
CHEMBL1963742

>  <Assay Description>  (844) 
PUBCHEM_BIOASSAY: Navigating the Kinome. (Class of assay: other) Panel member name: JAK3

>  <BAO Format>  (844) 
assay format

>  <Target>  (844) 
CHEMBL2148

>  <Target Pref. Name>  (844) 
Tyrosine-protein kinase JAK3

>  <Target Organism>  (844) 
Homo sapiens

>  <Target Type>  (844) 
SINGLE PROTEIN

>  <Document>  (844) 
CHEMBL1201862

>  <Source>  (844) 
PubChem BioAssays

>  <Max Phase>  (844) 
0

>  <#Ro5 Violations>  (844) 
0

>  <Molecular Weight>  (844) 
468.95

>  <Ligand Efficiency BEI>  (844) 
nan

>  <Ligand Efficiency LE>  (844) 
nan

>  <Ligand Efficiency LLE>  (844) 
nan

>  <Ligand Efficiency SEI>  (844) 
nan

>  <ALogP>  (844) 
3.82

>  <Assay Organism>  (844) 
nan

>  <Assay Tissue ChEMBL ID>  (844) 
nan

>  <Assay Tissue Name>  (844) 
nan

>  <Assay Cell Type>  (844) 
nan

>  <Assay Subcellular Fraction>  (844) 
nan

>  <Organism Tax ID>  (844) 
9606

>  <BAO Format ID>  (844) 
BAO_0000019

>  <Published Type>  (844) 
nan

>  <Published Relation>  (844) 
nan

>  <Published Value>  (844) 
nan

>  <Published Units>  (844) 
nan

>  <Canonical Smiles>  (844) 
CNC(=O)c1ccccc1Nc2nc(Nc3ccc(cc3OC)N4CCOCC4)ncc2Cl

>  <Data Validity Comment>  (844) 
nan

>  <Document Journal>  (844) 
nan

>  <Document Year>  (844) 
nan

>  <SRC ID>  (844) 
7

>  <UO Units>  (844) 
UO_0000065

>  <Potential Duplicate>  (844) 
False

>  <Class>  (844) 
0

$$$$

     RDKit          2D

 23 27  0  0  0  0  0  0  0  0999 V2000
   -1.6839   -7.2010    0.0000 O   0  0  0  0  0  0  0  0  0  0  0  0
   -1.5271   -5.7092    0.0000 C   0  0  0  0  0  0  0  0  0  0  0  0
   -0.1568   -5.0991    0.0000 N   0  0  0  0  0  0  0  0  0  0  0  0
   -0.0000   -3.6073    0.0000 C   0  0  0  0  0  0  0  0  0  0  0  0
    1.2135   -2.7256    0.0000 S   0  0  0  0  0  0  0  0  0  0  0  0
    0.7500   -1.2990    0.0000 C   0  0  0  0  0  0  0  0  0  0  0  0
    1.5000    0.0000    0.0000 C   0  0  0  0  0  0  0  0  0  0  0  0
    0.7500    1.2990    0.0000 C   0  0  0  0  0  0  0  0  0  0  0  0
   -0.7500    1.2990    0.0000 C   0  0  0  0  0  0  0  0  0  0  0  0
   -1.5000    0.0000    0.0000 C   0  0  0  0  0  0  0  0  0  0  0  0
   -0.7500   -1.2990    0.0000 C   0  0  0  0  0  0  0  0  0  0  0  0
   -1.2135   -2.7256    0.0000 C   0  0  0  0  0  0  0  0  0  0  0  0
   -2.5838   -3.3357    0.0000 C   0  0  0  0  0  0  0  0  0  0  0  0
   -3.9542   -2.7256    0.0000 N   0  0  0  0  0  0  0  0  0  0  0  0
   -4.9579   -3.8403    0.0000 C   0  0  0  0  0  0  0  0  0  0  0  0
   -4.2079   -5.1394    0.0000 N   0  0  0  0  0  0  0  0  0  0  0  0
   -2.7406   -4.8275    0.0000 N   0  0  0  0  0  0  0  0  0  0  0  0
   -6.4496   -3.6835    0.0000 C   0  0  0  0  0  0  0  0  0  0  0  0
   -7.0597   -2.3132    0.0000 C   0  0  0  0  0  0  0  0  0  0  0  0
   -8.5515   -2.1564    0.0000 C   0  0  0  0  0  0  0  0  0  0  0  0
   -9.4332   -3.3700    0.0000 N   0  0  0  0  0  0  0  0  0  0  0  0
   -8.8231   -4.7403    0.0000 C   0  0  0  0  0  0  0  0  0  0  0  0
   -7.3313   -4.8971    0.0000 C   0  0  0  0  0  0  0  0  0  0  0  0
  1  2  2  0
  2  3  1  0
  3  4  1  0
  4  5  1  0
  5  6  1  0
  6  7  1  0
  7  8  1  0
  8  9  1  0
  9 10  1  0
 10 11  1  0
 11 12  1  0
 12 13  1  0
 13 14  2  0
 14 15  1  0
 15 16  2  0
 16 17  1  0
 15 18  1  0
 18 19  2  0
 19 20  1  0
 20 21  2  0
 21 22  1  0
 22 23  2  0
 17  2  1  0
 12  4  2  0
 11  6  2  0
 17 13  1  0
 23 18  1  0
M  END
>  <Molecule>  (845) 
CHEMBL1966808

>  <Standard Type>  (845) 
Ki

>  <Standard Relation>  (845) 
>

>  <Standard Value>  (845) 
1584.89

>  <Standard Units>  (845) 
nM

>  <pChEMBL Value>  (845) 
nan

>  <Comment>  (845) 
inactive

>  <Compound Key>  (845) 
SID103904979

>  <Assay>  (845) 
CHEMBL1963742

>  <Assay Description>  (845) 
PUBCHEM_BIOASSAY: Navigating the Kinome. (Class of assay: other) Panel member name: JAK3

>  <BAO Format>  (845) 
assay format

>  <Target>  (845) 
CHEMBL2148

>  <Target Pref. Name>  (845) 
Tyrosine-protein kinase JAK3

>  <Target Organism>  (845) 
Homo sapiens

>  <Target Type>  (845) 
SINGLE PROTEIN

>  <Document>  (845) 
CHEMBL1201862

>  <Source>  (845) 
PubChem BioAssays

>  <Max Phase>  (845) 
0

>  <#Ro5 Violations>  (845) 
0

>  <Molecular Weight>  (845) 
323.38

>  <Ligand Efficiency BEI>  (845) 
nan

>  <Ligand Efficiency LE>  (845) 
nan

>  <Ligand Efficiency LLE>  (845) 
nan

>  <Ligand Efficiency SEI>  (845) 
nan

>  <ALogP>  (845) 
2.57

>  <Assay Organism>  (845) 
nan

>  <Assay Tissue ChEMBL ID>  (845) 
nan

>  <Assay Tissue Name>  (845) 
nan

>  <Assay Cell Type>  (845) 
nan

>  <Assay Subcellular Fraction>  (845) 
nan

>  <Organism Tax ID>  (845) 
9606

>  <BAO Format ID>  (845) 
BAO_0000019

>  <Published Type>  (845) 
nan

>  <Published Relation>  (845) 
nan

>  <Published Value>  (845) 
nan

>  <Published Units>  (845) 
nan

>  <Canonical Smiles>  (845) 
O=C1Nc2sc3CCCCc3c2c4nc(nn14)c5ccncc5

>  <Data Validity Comment>  (845) 
nan

>  <Document Journal>  (845) 
nan

>  <Document Year>  (845) 
nan

>  <SRC ID>  (845) 
7

>  <UO Units>  (845) 
UO_0000065

>  <Potential Duplicate>  (845) 
False

>  <Class>  (845) 
0

$$$$

     RDKit          2D

 19 21  0  0  0  0  0  0  0  0999 V2000
    4.6740   -4.8322    0.0000 C   0  0  0  0  0  0  0  0  0  0  0  0
    3.3037   -4.2221    0.0000 N   0  0  0  0  0  0  0  0  0  0  0  0
    2.9918   -2.7549    0.0000 C   0  0  0  0  0  0  0  0  0  0  0  0
    1.5000   -2.5981    0.0000 C   0  0  0  0  0  0  0  0  0  0  0  0
    0.7500   -1.2990    0.0000 C   0  0  0  0  0  0  0  0  0  0  0  0
    1.5000    0.0000    0.0000 C   0  0  0  0  0  0  0  0  0  0  0  0
    0.7500    1.2990    0.0000 C   0  0  0  0  0  0  0  0  0  0  0  0
   -0.7500    1.2990    0.0000 N   0  0  0  0  0  0  0  0  0  0  0  0
   -1.5000    0.0000    0.0000 C   0  0  0  0  0  0  0  0  0  0  0  0
   -0.7500   -1.2990    0.0000 N   0  0  0  0  0  0  0  0  0  0  0  0
    0.8899   -3.9684    0.0000 C   0  0  0  0  0  0  0  0  0  0  0  0
    2.0046   -4.9721    0.0000 N   0  0  0  0  0  0  0  0  0  0  0  0
   -0.5773   -4.2803    0.0000 C   0  0  0  0  0  0  0  0  0  0  0  0
   -1.5810   -3.1655    0.0000 C   0  0  0  0  0  0  0  0  0  0  0  0
   -3.0482   -3.4774    0.0000 C   0  0  0  0  0  0  0  0  0  0  0  0
   -3.5118   -4.9040    0.0000 C   0  0  0  0  0  0  0  0  0  0  0  0
   -4.9790   -5.2159    0.0000 F   0  0  0  0  0  0  0  0  0  0  0  0
   -2.5081   -6.0187    0.0000 C   0  0  0  0  0  0  0  0  0  0  0  0
   -1.0409   -5.7068    0.0000 C   0  0  0  0  0  0  0  0  0  0  0  0
  1  2  1  0
  2  3  1  0
  3  4  2  0
  4  5  1  0
  5  6  2  0
  6  7  1  0
  7  8  2  0
  8  9  1  0
  9 10  2  0
  4 11  1  0
 11 12  2  0
 11 13  1  0
 13 14  2  0
 14 15  1  0
 15 16  2  0
 16 17  1  0
 16 18  1  0
 18 19  2  0
 12  2  1  0
 10  5  1  0
 19 13  1  0
M  END
>  <Molecule>  (846) 
CHEMBL1989474

>  <Standard Type>  (846) 
Ki

>  <Standard Relation>  (846) 
>

>  <Standard Value>  (846) 
1584.89

>  <Standard Units>  (846) 
nM

>  <pChEMBL Value>  (846) 
nan

>  <Comment>  (846) 
inactive

>  <Compound Key>  (846) 
SID103905180

>  <Assay>  (846) 
CHEMBL1963742

>  <Assay Description>  (846) 
PUBCHEM_BIOASSAY: Navigating the Kinome. (Class of assay: other) Panel member name: JAK3

>  <BAO Format>  (846) 
assay format

>  <Target>  (846) 
CHEMBL2148

>  <Target Pref. Name>  (846) 
Tyrosine-protein kinase JAK3

>  <Target Organism>  (846) 
Homo sapiens

>  <Target Type>  (846) 
SINGLE PROTEIN

>  <Document>  (846) 
CHEMBL1201862

>  <Source>  (846) 
PubChem BioAssays

>  <Max Phase>  (846) 
0

>  <#Ro5 Violations>  (846) 
0

>  <Molecular Weight>  (846) 
254.27

>  <Ligand Efficiency BEI>  (846) 
nan

>  <Ligand Efficiency LE>  (846) 
nan

>  <Ligand Efficiency LLE>  (846) 
nan

>  <Ligand Efficiency SEI>  (846) 
nan

>  <ALogP>  (846) 
2.68

>  <Assay Organism>  (846) 
nan

>  <Assay Tissue ChEMBL ID>  (846) 
nan

>  <Assay Tissue Name>  (846) 
nan

>  <Assay Cell Type>  (846) 
nan

>  <Assay Subcellular Fraction>  (846) 
nan

>  <Organism Tax ID>  (846) 
9606

>  <BAO Format ID>  (846) 
BAO_0000019

>  <Published Type>  (846) 
nan

>  <Published Relation>  (846) 
nan

>  <Published Value>  (846) 
nan

>  <Published Units>  (846) 
nan

>  <Canonical Smiles>  (846) 
Cn1cc(c2ccncn2)c(n1)c3ccc(F)cc3

>  <Data Validity Comment>  (846) 
nan

>  <Document Journal>  (846) 
nan

>  <Document Year>  (846) 
nan

>  <SRC ID>  (846) 
7

>  <UO Units>  (846) 
UO_0000065

>  <Potential Duplicate>  (846) 
False

>  <Class>  (846) 
0

$$$$

     RDKit          2D

 18 20  0  0  0  0  0  0  0  0999 V2000
    2.7760    0.0000    0.0000 C   0  0  0  0  0  0  0  0  0  0  0  0
    1.2760    0.0000    0.0000 C   0  0  0  0  0  0  0  0  0  0  0  0
    0.3943    1.2135    0.0000 N   0  0  0  0  0  0  0  0  0  0  0  0
   -1.0323    0.7500    0.0000 N   0  0  0  0  0  0  0  0  0  0  0  0
   -1.0323   -0.7500    0.0000 C   0  0  0  0  0  0  0  0  0  0  0  0
   -2.1470   -1.7537    0.0000 N   0  0  0  0  0  0  0  0  0  0  0  0
   -1.8351   -3.2209    0.0000 C   0  0  0  0  0  0  0  0  0  0  0  0
   -0.4086   -3.6844    0.0000 C   0  0  0  0  0  0  0  0  0  0  0  0
   -0.0967   -5.1517    0.0000 C   0  0  0  0  0  0  0  0  0  0  0  0
    0.2152   -6.6189    0.0000 N   0  0  0  0  0  0  0  0  0  0  0  0
    0.7062   -2.6807    0.0000 C   0  0  0  0  0  0  0  0  0  0  0  0
    2.1328   -3.1443    0.0000 C   0  0  0  0  0  0  0  0  0  0  0  0
    2.4446   -4.6115    0.0000 C   0  0  0  0  0  0  0  0  0  0  0  0
    3.8712   -5.0750    0.0000 C   0  0  0  0  0  0  0  0  0  0  0  0
    4.9859   -4.0713    0.0000 C   0  0  0  0  0  0  0  0  0  0  0  0
    4.6741   -2.6041    0.0000 C   0  0  0  0  0  0  0  0  0  0  0  0
    3.2475   -2.1406    0.0000 C   0  0  0  0  0  0  0  0  0  0  0  0
    0.3943   -1.2135    0.0000 C   0  0  0  0  0  0  0  0  0  0  0  0
  1  2  1  0
  2  3  2  0
  3  4  1  0
  4  5  1  0
  5  6  2  0
  6  7  1  0
  7  8  2  0
  8  9  1  0
  9 10  3  0
  8 11  1  0
 11 12  1  0
 12 13  2  0
 13 14  1  0
 14 15  2  0
 15 16  1  0
 16 17  2  0
 11 18  2  0
 18  2  1  0
 18  5  1  0
 17 12  1  0
M  END
>  <Molecule>  (847) 
CHEMBL1965495

>  <Standard Type>  (847) 
Ki

>  <Standard Relation>  (847) 
=

>  <Standard Value>  (847) 
1584.89

>  <Standard Units>  (847) 
nM

>  <pChEMBL Value>  (847) 
5.8

>  <Comment>  (847) 
active

>  <Compound Key>  (847) 
SID103905398

>  <Assay>  (847) 
CHEMBL1963742

>  <Assay Description>  (847) 
PUBCHEM_BIOASSAY: Navigating the Kinome. (Class of assay: other) Panel member name: JAK3

>  <BAO Format>  (847) 
assay format

>  <Target>  (847) 
CHEMBL2148

>  <Target Pref. Name>  (847) 
Tyrosine-protein kinase JAK3

>  <Target Organism>  (847) 
Homo sapiens

>  <Target Type>  (847) 
SINGLE PROTEIN

>  <Document>  (847) 
CHEMBL1201862

>  <Source>  (847) 
PubChem BioAssays

>  <Max Phase>  (847) 
0

>  <#Ro5 Violations>  (847) 
0

>  <Molecular Weight>  (847) 
234.26

>  <Ligand Efficiency BEI>  (847) 
nan

>  <Ligand Efficiency LE>  (847) 
nan

>  <Ligand Efficiency LLE>  (847) 
nan

>  <Ligand Efficiency SEI>  (847) 
nan

>  <ALogP>  (847) 
2.81

>  <Assay Organism>  (847) 
nan

>  <Assay Tissue ChEMBL ID>  (847) 
nan

>  <Assay Tissue Name>  (847) 
nan

>  <Assay Cell Type>  (847) 
nan

>  <Assay Subcellular Fraction>  (847) 
nan

>  <Organism Tax ID>  (847) 
9606

>  <BAO Format ID>  (847) 
BAO_0000019

>  <Published Type>  (847) 
nan

>  <Published Relation>  (847) 
nan

>  <Published Value>  (847) 
nan

>  <Published Units>  (847) 
nan

>  <Canonical Smiles>  (847) 
Cc1n[nH]c2ncc(C#N)c(c3ccccc3)c12

>  <Data Validity Comment>  (847) 
nan

>  <Document Journal>  (847) 
nan

>  <Document Year>  (847) 
nan

>  <SRC ID>  (847) 
7

>  <UO Units>  (847) 
UO_0000065

>  <Potential Duplicate>  (847) 
False

>  <Class>  (847) 
1

$$$$

     RDKit          2D

 27 29  0  0  0  0  0  0  0  0999 V2000
    0.0000  -10.3923    0.0000 C   0  0  0  0  0  0  0  0  0  0  0  0
    0.7500   -9.0933    0.0000 C   0  0  0  0  0  0  0  0  0  0  0  0
    2.2500   -9.0933    0.0000 C   0  0  0  0  0  0  0  0  0  0  0  0
    3.0000   -7.7942    0.0000 S   0  0  0  0  0  0  0  0  0  0  0  0
    1.7010   -7.0442    0.0000 O   0  0  0  0  0  0  0  0  0  0  0  0
    4.2990   -8.5442    0.0000 O   0  0  0  0  0  0  0  0  0  0  0  0
    3.7500   -6.4952    0.0000 N   0  0  0  0  0  0  0  0  0  0  0  0
    3.0000   -5.1962    0.0000 C   0  0  0  0  0  0  0  0  0  0  0  0
    1.5000   -5.1962    0.0000 C   0  0  0  0  0  0  0  0  0  0  0  0
    0.7500   -3.8971    0.0000 C   0  0  0  0  0  0  0  0  0  0  0  0
    1.5000   -2.5981    0.0000 C   0  0  0  0  0  0  0  0  0  0  0  0
    3.0000   -2.5981    0.0000 C   0  0  0  0  0  0  0  0  0  0  0  0
    3.7500   -3.8971    0.0000 C   0  0  0  0  0  0  0  0  0  0  0  0
    0.7500   -1.2990    0.0000 C   0  0  0  0  0  0  0  0  0  0  0  0
    1.5000    0.0000    0.0000 C   0  0  0  0  0  0  0  0  0  0  0  0
    0.7500    1.2990    0.0000 C   0  0  0  0  0  0  0  0  0  0  0  0
   -0.7500    1.2990    0.0000 C   0  0  0  0  0  0  0  0  0  0  0  0
   -1.7537    2.4138    0.0000 N   0  0  0  0  0  0  0  0  0  0  0  0
   -3.1240    1.8037    0.0000 N   0  0  0  0  0  0  0  0  0  0  0  0
   -2.9672    0.3119    0.0000 C   0  0  0  0  0  0  0  0  0  0  0  0
   -4.0819   -0.6918    0.0000 N   0  0  0  0  0  0  0  0  0  0  0  0
   -5.5085   -0.2283    0.0000 C   0  0  0  0  0  0  0  0  0  0  0  0
   -5.8204    1.2389    0.0000 O   0  0  0  0  0  0  0  0  0  0  0  0
   -6.6232   -1.2320    0.0000 C   0  0  0  0  0  0  0  0  0  0  0  0
   -8.0498   -0.7685    0.0000 C   0  0  0  0  0  0  0  0  0  0  0  0
   -1.5000    0.0000    0.0000 C   0  0  0  0  0  0  0  0  0  0  0  0
   -0.7500   -1.2990    0.0000 C   0  0  0  0  0  0  0  0  0  0  0  0
  1  2  1  0
  2  3  1  0
  3  4  1  0
  4  5  2  0
  4  6  2  0
  4  7  1  0
  7  8  1  0
  8  9  2  0
  9 10  1  0
 10 11  2  0
 11 12  1  0
 12 13  2  0
 11 14  1  0
 14 15  2  0
 15 16  1  0
 16 17  2  0
 17 18  1  0
 18 19  1  0
 19 20  2  0
 20 21  1  0
 21 22  1  0
 22 23  2  0
 22 24  1  0
 24 25  1  0
 20 26  1  0
 26 27  2  0
 13  8  1  0
 27 14  1  0
 26 17  1  0
M  END
>  <Molecule>  (848) 
CHEMBL1972221

>  <Standard Type>  (848) 
Ki

>  <Standard Relation>  (848) 
=

>  <Standard Value>  (848) 
251.19

>  <Standard Units>  (848) 
nM

>  <pChEMBL Value>  (848) 
6.6

>  <Comment>  (848) 
active

>  <Compound Key>  (848) 
SID103905136

>  <Assay>  (848) 
CHEMBL1963742

>  <Assay Description>  (848) 
PUBCHEM_BIOASSAY: Navigating the Kinome. (Class of assay: other) Panel member name: JAK3

>  <BAO Format>  (848) 
assay format

>  <Target>  (848) 
CHEMBL2148

>  <Target Pref. Name>  (848) 
Tyrosine-protein kinase JAK3

>  <Target Organism>  (848) 
Homo sapiens

>  <Target Type>  (848) 
SINGLE PROTEIN

>  <Document>  (848) 
CHEMBL1201862

>  <Source>  (848) 
PubChem BioAssays

>  <Max Phase>  (848) 
0

>  <#Ro5 Violations>  (848) 
0

>  <Molecular Weight>  (848) 
386.48

>  <Ligand Efficiency BEI>  (848) 
nan

>  <Ligand Efficiency LE>  (848) 
nan

>  <Ligand Efficiency LLE>  (848) 
nan

>  <Ligand Efficiency SEI>  (848) 
nan

>  <ALogP>  (848) 
3.73

>  <Assay Organism>  (848) 
nan

>  <Assay Tissue ChEMBL ID>  (848) 
nan

>  <Assay Tissue Name>  (848) 
nan

>  <Assay Cell Type>  (848) 
nan

>  <Assay Subcellular Fraction>  (848) 
nan

>  <Organism Tax ID>  (848) 
9606

>  <BAO Format ID>  (848) 
BAO_0000019

>  <Published Type>  (848) 
nan

>  <Published Relation>  (848) 
nan

>  <Published Value>  (848) 
nan

>  <Published Units>  (848) 
nan

>  <Canonical Smiles>  (848) 
CCCS(=O)(=O)Nc1ccc(cc1)c2ccc3[nH]nc(NC(=O)CC)c3c2

>  <Data Validity Comment>  (848) 
nan

>  <Document Journal>  (848) 
nan

>  <Document Year>  (848) 
nan

>  <SRC ID>  (848) 
7

>  <UO Units>  (848) 
UO_0000065

>  <Potential Duplicate>  (848) 
False

>  <Class>  (848) 
1

$$$$

     RDKit          2D

 23 26  0  0  0  0  0  0  0  0999 V2000
    3.9955   -1.6402    0.0000 C   0  0  0  0  0  0  0  0  0  0  0  0
    2.9918   -2.7549    0.0000 C   0  0  0  0  0  0  0  0  0  0  0  0
    1.5000   -2.5981    0.0000 C   0  0  0  0  0  0  0  0  0  0  0  0
    0.8899   -3.9684    0.0000 N   0  0  0  0  0  0  0  0  0  0  0  0
    2.0046   -4.9721    0.0000 N   0  0  0  0  0  0  0  0  0  0  0  0
    3.3037   -4.2221    0.0000 N   0  0  0  0  0  0  0  0  0  0  0  0
    4.6740   -4.8322    0.0000 C   0  0  0  0  0  0  0  0  0  0  0  0
    4.8308   -6.3240    0.0000 C   0  0  0  0  0  0  0  0  0  0  0  0
    3.6172   -7.2057    0.0000 C   0  0  0  0  0  0  0  0  0  0  0  0
    3.7740   -8.6974    0.0000 C   0  0  0  0  0  0  0  0  0  0  0  0
    5.1443   -9.3075    0.0000 C   0  0  0  0  0  0  0  0  0  0  0  0
    6.3579   -8.4259    0.0000 C   0  0  0  0  0  0  0  0  0  0  0  0
    6.2011   -6.9341    0.0000 C   0  0  0  0  0  0  0  0  0  0  0  0
    0.7500   -1.2990    0.0000 C   0  0  0  0  0  0  0  0  0  0  0  0
    1.5000    0.0000    0.0000 C   0  0  0  0  0  0  0  0  0  0  0  0
    0.7500    1.2990    0.0000 C   0  0  0  0  0  0  0  0  0  0  0  0
   -0.7500    1.2990    0.0000 C   0  0  0  0  0  0  0  0  0  0  0  0
   -1.7537    2.4138    0.0000 N   0  0  0  0  0  0  0  0  0  0  0  0
   -3.1240    1.8037    0.0000 N   0  0  0  0  0  0  0  0  0  0  0  0
   -2.9672    0.3119    0.0000 C   0  0  0  0  0  0  0  0  0  0  0  0
   -4.0819   -0.6918    0.0000 N   0  0  0  0  0  0  0  0  0  0  0  0
   -1.5000    0.0000    0.0000 C   0  0  0  0  0  0  0  0  0  0  0  0
   -0.7500   -1.2990    0.0000 C   0  0  0  0  0  0  0  0  0  0  0  0
  1  2  1  0
  2  3  2  0
  3  4  1  0
  4  5  2  0
  5  6  1  0
  6  7  1  0
  7  8  1  0
  8  9  2  0
  9 10  1  0
 10 11  2  0
 11 12  1  0
 12 13  2  0
  3 14  1  0
 14 15  2  0
 15 16  1  0
 16 17  2  0
 17 18  1  0
 18 19  1  0
 19 20  2  0
 20 21  1  0
 20 22  1  0
 22 23  2  0
  6  2  1  0
 13  8  1  0
 23 14  1  0
 22 17  1  0
M  END
>  <Molecule>  (849) 
CHEMBL1989646

>  <Standard Type>  (849) 
Ki

>  <Standard Relation>  (849) 
=

>  <Standard Value>  (849) 
794.33

>  <Standard Units>  (849) 
nM

>  <pChEMBL Value>  (849) 
6.1

>  <Comment>  (849) 
active

>  <Compound Key>  (849) 
SID103904483

>  <Assay>  (849) 
CHEMBL1963742

>  <Assay Description>  (849) 
PUBCHEM_BIOASSAY: Navigating the Kinome. (Class of assay: other) Panel member name: JAK3

>  <BAO Format>  (849) 
assay format

>  <Target>  (849) 
CHEMBL2148

>  <Target Pref. Name>  (849) 
Tyrosine-protein kinase JAK3

>  <Target Organism>  (849) 
Homo sapiens

>  <Target Type>  (849) 
SINGLE PROTEIN

>  <Document>  (849) 
CHEMBL1201862

>  <Source>  (849) 
PubChem BioAssays

>  <Max Phase>  (849) 
0

>  <#Ro5 Violations>  (849) 
0

>  <Molecular Weight>  (849) 
304.36

>  <Ligand Efficiency BEI>  (849) 
nan

>  <Ligand Efficiency LE>  (849) 
nan

>  <Ligand Efficiency LLE>  (849) 
nan

>  <Ligand Efficiency SEI>  (849) 
nan

>  <ALogP>  (849) 
2.76

>  <Assay Organism>  (849) 
nan

>  <Assay Tissue ChEMBL ID>  (849) 
nan

>  <Assay Tissue Name>  (849) 
nan

>  <Assay Cell Type>  (849) 
nan

>  <Assay Subcellular Fraction>  (849) 
nan

>  <Organism Tax ID>  (849) 
9606

>  <BAO Format ID>  (849) 
BAO_0000019

>  <Published Type>  (849) 
nan

>  <Published Relation>  (849) 
nan

>  <Published Value>  (849) 
nan

>  <Published Units>  (849) 
nan

>  <Canonical Smiles>  (849) 
Cc1c(nnn1Cc2ccccc2)c3ccc4[nH]nc(N)c4c3

>  <Data Validity Comment>  (849) 
nan

>  <Document Journal>  (849) 
nan

>  <Document Year>  (849) 
nan

>  <SRC ID>  (849) 
7

>  <UO Units>  (849) 
UO_0000065

>  <Potential Duplicate>  (849) 
False

>  <Class>  (849) 
1

$$$$

     RDKit          2D

 27 29  0  0  0  0  0  0  0  0999 V2000
    4.8705   -4.5850    0.0000 O   0  0  0  0  0  0  0  0  0  0  0  0
    3.3705   -4.5850    0.0000 C   0  0  0  0  0  0  0  0  0  0  0  0
    3.0367   -3.1226    0.0000 C   0  0  0  0  0  0  0  0  0  0  0  0
    2.1015   -1.9499    0.0000 O   0  0  0  0  0  0  0  0  0  0  0  0
    0.7500   -1.2990    0.0000 C   0  0  0  0  0  0  0  0  0  0  0  0
    1.5000    0.0000    0.0000 C   0  0  0  0  0  0  0  0  0  0  0  0
    0.7500    1.2990    0.0000 C   0  0  0  0  0  0  0  0  0  0  0  0
   -0.7500    1.2990    0.0000 C   0  0  0  0  0  0  0  0  0  0  0  0
   -1.5000    2.5981    0.0000 Cl  0  0  0  0  0  0  0  0  0  0  0  0
   -1.5000    0.0000    0.0000 C   0  0  0  0  0  0  0  0  0  0  0  0
   -0.7500   -1.2990    0.0000 C   0  0  0  0  0  0  0  0  0  0  0  0
   -2.1015   -1.9499    0.0000 N   0  0  0  0  0  0  0  0  0  0  0  0
   -3.0367   -3.1226    0.0000 C   0  0  0  0  0  0  0  0  0  0  0  0
   -4.3881   -2.4718    0.0000 O   0  0  0  0  0  0  0  0  0  0  0  0
   -3.3705   -4.5850    0.0000 N   0  0  0  0  0  0  0  0  0  0  0  0
   -3.0367   -6.0474    0.0000 C   0  0  0  0  0  0  0  0  0  0  0  0
   -3.7165   -7.4238    0.0000 C   0  0  0  0  0  0  0  0  0  0  0  0
   -3.1685   -8.8202    0.0000 N   0  0  0  0  0  0  0  0  0  0  0  0
   -1.6852   -9.0437    0.0000 C   0  0  0  0  0  0  0  0  0  0  0  0
   -1.1372  -10.4400    0.0000 C   0  0  0  0  0  0  0  0  0  0  0  0
   -0.5892  -11.8363    0.0000 N   0  0  0  0  0  0  0  0  0  0  0  0
   -0.7500   -7.8710    0.0000 C   0  0  0  0  0  0  0  0  0  0  0  0
    0.7500   -7.8710    0.0000 O   0  0  0  0  0  0  0  0  0  0  0  0
    2.1015   -7.2201    0.0000 C   0  0  0  0  0  0  0  0  0  0  0  0
    3.0367   -6.0474    0.0000 C   0  0  0  0  0  0  0  0  0  0  0  0
    4.3881   -6.6982    0.0000 O   0  0  0  0  0  0  0  0  0  0  0  0
   -2.1015   -7.2201    0.0000 N   0  0  0  0  0  0  0  0  0  0  0  0
  1  2  1  0
  2  3  1  0
  3  4  1  0
  4  5  1  0
  5  6  2  0
  6  7  1  0
  7  8  2  0
  8  9  1  0
  8 10  1  0
 10 11  2  0
 11 12  1  0
 12 13  1  0
 13 14  2  0
 13 15  1  0
 15 16  1  0
 16 17  1  0
 17 18  2  0
 18 19  1  0
 19 20  1  0
 20 21  3  0
 19 22  2  0
 22 23  1  0
 23 24  1  0
 24 25  1  0
 25 26  1  0
 22 27  1  0
 25  2  1  0
 11  5  1  0
 27 16  2  0
M  END
>  <Molecule>  (850) 
CHEMBL1980802

>  <Standard Type>  (850) 
Ki

>  <Standard Relation>  (850) 
>

>  <Standard Value>  (850) 
1584.89

>  <Standard Units>  (850) 
nM

>  <pChEMBL Value>  (850) 
nan

>  <Comment>  (850) 
inactive

>  <Compound Key>  (850) 
SID103905156

>  <Assay>  (850) 
CHEMBL1963742

>  <Assay Description>  (850) 
PUBCHEM_BIOASSAY: Navigating the Kinome. (Class of assay: other) Panel member name: JAK3

>  <BAO Format>  (850) 
assay format

>  <Target>  (850) 
CHEMBL2148

>  <Target Pref. Name>  (850) 
Tyrosine-protein kinase JAK3

>  <Target Organism>  (850) 
Homo sapiens

>  <Target Type>  (850) 
SINGLE PROTEIN

>  <Document>  (850) 
CHEMBL1201862

>  <Source>  (850) 
PubChem BioAssays

>  <Max Phase>  (850) 
0

>  <#Ro5 Violations>  (850) 
0

>  <Molecular Weight>  (850) 
391.77

>  <Ligand Efficiency BEI>  (850) 
nan

>  <Ligand Efficiency LE>  (850) 
nan

>  <Ligand Efficiency LLE>  (850) 
nan

>  <Ligand Efficiency SEI>  (850) 
nan

>  <ALogP>  (850) 
1.14

>  <Assay Organism>  (850) 
nan

>  <Assay Tissue ChEMBL ID>  (850) 
nan

>  <Assay Tissue Name>  (850) 
nan

>  <Assay Cell Type>  (850) 
nan

>  <Assay Subcellular Fraction>  (850) 
nan

>  <Organism Tax ID>  (850) 
9606

>  <BAO Format ID>  (850) 
BAO_0000019

>  <Published Type>  (850) 
nan

>  <Published Relation>  (850) 
nan

>  <Published Value>  (850) 
nan

>  <Published Units>  (850) 
nan

>  <Canonical Smiles>  (850) 
OC1COc2ccc(Cl)cc2NC(=O)Nc3cnc(C#N)c(OCC1O)n3

>  <Data Validity Comment>  (850) 
nan

>  <Document Journal>  (850) 
nan

>  <Document Year>  (850) 
nan

>  <SRC ID>  (850) 
7

>  <UO Units>  (850) 
UO_0000065

>  <Potential Duplicate>  (850) 
False

>  <Class>  (850) 
0

$$$$

     RDKit          2D

 33 37  0  0  0  0  0  0  0  0999 V2000
  -16.6207   -3.7500    0.0000 C   0  0  0  0  0  0  0  0  0  0  0  0
  -15.3217   -3.0000    0.0000 C   0  0  0  0  0  0  0  0  0  0  0  0
  -15.3217   -1.5000    0.0000 C   0  0  0  0  0  0  0  0  0  0  0  0
  -14.0227   -0.7500    0.0000 C   0  0  0  0  0  0  0  0  0  0  0  0
  -12.7236   -1.5000    0.0000 C   0  0  0  0  0  0  0  0  0  0  0  0
  -12.7236   -3.0000    0.0000 C   0  0  0  0  0  0  0  0  0  0  0  0
  -11.4246   -3.7500    0.0000 N   0  0  0  0  0  0  0  0  0  0  0  0
  -10.1256   -3.0000    0.0000 C   0  0  0  0  0  0  0  0  0  0  0  0
  -10.1256   -1.5000    0.0000 O   0  0  0  0  0  0  0  0  0  0  0  0
   -8.8265   -3.7500    0.0000 N   0  0  0  0  0  0  0  0  0  0  0  0
   -7.5275   -3.0000    0.0000 C   0  0  0  0  0  0  0  0  0  0  0  0
   -6.2284   -3.7500    0.0000 C   0  0  0  0  0  0  0  0  0  0  0  0
   -4.9294   -3.0000    0.0000 C   0  0  0  0  0  0  0  0  0  0  0  0
   -4.9294   -1.5000    0.0000 C   0  0  0  0  0  0  0  0  0  0  0  0
   -6.2284   -0.7500    0.0000 C   0  0  0  0  0  0  0  0  0  0  0  0
   -7.5275   -1.5000    0.0000 C   0  0  0  0  0  0  0  0  0  0  0  0
   -3.6304   -0.7500    0.0000 C   0  0  0  0  0  0  0  0  0  0  0  0
   -3.6304    0.7500    0.0000 C   0  0  0  0  0  0  0  0  0  0  0  0
   -2.3313    1.5000    0.0000 N   0  0  0  0  0  0  0  0  0  0  0  0
   -1.0323    0.7500    0.0000 C   0  0  0  0  0  0  0  0  0  0  0  0
    0.3943    1.2135    0.0000 C   0  0  0  0  0  0  0  0  0  0  0  0
    1.2760    0.0000    0.0000 C   0  0  0  0  0  0  0  0  0  0  0  0
    0.3943   -1.2135    0.0000 N   0  0  0  0  0  0  0  0  0  0  0  0
   -1.0323   -0.7500    0.0000 N   0  0  0  0  0  0  0  0  0  0  0  0
   -2.3313   -1.5000    0.0000 C   0  0  0  0  0  0  0  0  0  0  0  0
   -2.3313   -3.0000    0.0000 N   0  0  0  0  0  0  0  0  0  0  0  0
    0.8578    2.6401    0.0000 C   0  0  0  0  0  0  0  0  0  0  0  0
   -0.0239    3.8536    0.0000 C   0  0  0  0  0  0  0  0  0  0  0  0
    0.8578    5.0672    0.0000 N   0  0  0  0  0  0  0  0  0  0  0  0
    2.2844    4.6036    0.0000 N   0  0  0  0  0  0  0  0  0  0  0  0
    3.4979    5.4853    0.0000 C   0  0  0  0  0  0  0  0  0  0  0  0
    2.2844    3.1036    0.0000 C   0  0  0  0  0  0  0  0  0  0  0  0
  -14.0227   -3.7500    0.0000 C   0  0  0  0  0  0  0  0  0  0  0  0
  1  2  1  0
  2  3  2  0
  3  4  1  0
  4  5  2  0
  5  6  1  0
  6  7  1  0
  7  8  1  0
  8  9  2  0
  8 10  1  0
 10 11  1  0
 11 12  2  0
 12 13  1  0
 13 14  2  0
 14 15  1  0
 15 16  2  0
 14 17  1  0
 17 18  1  0
 18 19  2  0
 19 20  1  0
 20 21  2  0
 21 22  1  0
 22 23  2  0
 23 24  1  0
 24 25  1  0
 25 26  1  0
 21 27  1  0
 27 28  1  0
 28 29  2  0
 29 30  1  0
 30 31  1  0
 30 32  1  0
  6 33  2  0
 33  2  1  0
 16 11  1  0
 25 17  2  0
 24 20  1  0
 32 27  2  0
M  END
>  <Molecule>  (851) 
CHEMBL508928

>  <Standard Type>  (851) 
Ki

>  <Standard Relation>  (851) 
>

>  <Standard Value>  (851) 
1000.0

>  <Standard Units>  (851) 
nM

>  <pChEMBL Value>  (851) 
nan

>  <Comment>  (851) 
inactive

>  <Compound Key>  (851) 
SID103904288

>  <Assay>  (851) 
CHEMBL1963742

>  <Assay Description>  (851) 
PUBCHEM_BIOASSAY: Navigating the Kinome. (Class of assay: other) Panel member name: JAK3

>  <BAO Format>  (851) 
assay format

>  <Target>  (851) 
CHEMBL2148

>  <Target Pref. Name>  (851) 
Tyrosine-protein kinase JAK3

>  <Target Organism>  (851) 
Homo sapiens

>  <Target Type>  (851) 
SINGLE PROTEIN

>  <Document>  (851) 
CHEMBL1201862

>  <Source>  (851) 
PubChem BioAssays

>  <Max Phase>  (851) 
0

>  <#Ro5 Violations>  (851) 
0

>  <Molecular Weight>  (851) 
438.5

>  <Ligand Efficiency BEI>  (851) 
nan

>  <Ligand Efficiency LE>  (851) 
nan

>  <Ligand Efficiency LLE>  (851) 
nan

>  <Ligand Efficiency SEI>  (851) 
nan

>  <ALogP>  (851) 
4.33

>  <Assay Organism>  (851) 
nan

>  <Assay Tissue ChEMBL ID>  (851) 
nan

>  <Assay Tissue Name>  (851) 
nan

>  <Assay Cell Type>  (851) 
nan

>  <Assay Subcellular Fraction>  (851) 
nan

>  <Organism Tax ID>  (851) 
9606

>  <BAO Format ID>  (851) 
BAO_0000019

>  <Published Type>  (851) 
nan

>  <Published Relation>  (851) 
nan

>  <Published Value>  (851) 
nan

>  <Published Units>  (851) 
nan

>  <Canonical Smiles>  (851) 
Cc1cccc(NC(=O)Nc2ccc(cc2)c3cnc4c(cnn4c3N)c5cnn(C)c5)c1

>  <Data Validity Comment>  (851) 
nan

>  <Document Journal>  (851) 
nan

>  <Document Year>  (851) 
nan

>  <SRC ID>  (851) 
7

>  <UO Units>  (851) 
UO_0000065

>  <Potential Duplicate>  (851) 
False

>  <Class>  (851) 
0

$$$$

     RDKit          2D

 30 33  0  0  0  0  0  0  0  0999 V2000
    4.5000    0.0000    0.0000 F   0  0  0  0  0  0  0  0  0  0  0  0
    3.0000    0.0000    0.0000 C   0  0  0  0  0  0  0  0  0  0  0  0
    3.0000   -1.5000    0.0000 F   0  0  0  0  0  0  0  0  0  0  0  0
    3.0000    1.5000    0.0000 F   0  0  0  0  0  0  0  0  0  0  0  0
    1.5000    0.0000    0.0000 C   0  0  0  0  0  0  0  0  0  0  0  0
    0.7500   -1.2990    0.0000 C   0  0  0  0  0  0  0  0  0  0  0  0
   -0.7500   -1.2990    0.0000 C   0  0  0  0  0  0  0  0  0  0  0  0
   -1.5000    0.0000    0.0000 C   0  0  0  0  0  0  0  0  0  0  0  0
   -0.7500    1.2990    0.0000 C   0  0  0  0  0  0  0  0  0  0  0  0
   -1.5000    2.5981    0.0000 C   0  0  0  0  0  0  0  0  0  0  0  0
   -3.0000    2.5981    0.0000 N   0  0  0  0  0  0  0  0  0  0  0  0
   -3.7500    3.8971    0.0000 C   0  0  0  0  0  0  0  0  0  0  0  0
   -3.0000    5.1962    0.0000 O   0  0  0  0  0  0  0  0  0  0  0  0
   -5.2500    3.8971    0.0000 N   0  0  0  0  0  0  0  0  0  0  0  0
   -6.0000    5.1962    0.0000 C   0  0  0  0  0  0  0  0  0  0  0  0
   -5.2500    6.4952    0.0000 C   0  0  0  0  0  0  0  0  0  0  0  0
   -6.0000    7.7942    0.0000 C   0  0  0  0  0  0  0  0  0  0  0  0
   -7.5000    7.7942    0.0000 C   0  0  0  0  0  0  0  0  0  0  0  0
   -8.2500    6.4952    0.0000 C   0  0  0  0  0  0  0  0  0  0  0  0
   -7.5000    5.1962    0.0000 N   0  0  0  0  0  0  0  0  0  0  0  0
   -9.7500    6.4952    0.0000 N   0  0  0  0  0  0  0  0  0  0  0  0
  -10.5000    7.7942    0.0000 C   0  0  0  0  0  0  0  0  0  0  0  0
  -12.0000    7.7942    0.0000 C   0  0  0  0  0  0  0  0  0  0  0  0
  -12.7500    6.4952    0.0000 O   0  0  0  0  0  0  0  0  0  0  0  0
  -12.0000    5.1962    0.0000 C   0  0  0  0  0  0  0  0  0  0  0  0
  -10.5000    5.1962    0.0000 C   0  0  0  0  0  0  0  0  0  0  0  0
   -0.7500    3.8971    0.0000 C   0  0  0  0  0  0  0  0  0  0  0  0
    0.7500    3.8971    0.0000 C   0  0  0  0  0  0  0  0  0  0  0  0
    1.5000    2.5981    0.0000 N   0  0  0  0  0  0  0  0  0  0  0  0
    0.7500    1.2990    0.0000 C   0  0  0  0  0  0  0  0  0  0  0  0
  1  2  1  0
  2  3  1  0
  2  4  1  0
  2  5  1  0
  5  6  2  0
  6  7  1  0
  7  8  2  0
  8  9  1  0
  9 10  2  0
 10 11  1  0
 11 12  1  0
 12 13  2  0
 12 14  1  0
 14 15  1  0
 15 16  2  0
 16 17  1  0
 17 18  2  0
 18 19  1  0
 19 20  2  0
 19 21  1  0
 21 22  1  0
 22 23  1  0
 23 24  1  0
 24 25  1  0
 25 26  1  0
 10 27  1  0
 27 28  2  0
 28 29  1  0
 29 30  2  0
 30  5  1  0
 30  9  1  0
 20 15  1  0
 26 21  1  0
M  END
>  <Molecule>  (852) 
CHEMBL1972119

>  <Standard Type>  (852) 
Ki

>  <Standard Relation>  (852) 
>

>  <Standard Value>  (852) 
1584.89

>  <Standard Units>  (852) 
nM

>  <pChEMBL Value>  (852) 
nan

>  <Comment>  (852) 
inactive

>  <Compound Key>  (852) 
SID103904895

>  <Assay>  (852) 
CHEMBL1963742

>  <Assay Description>  (852) 
PUBCHEM_BIOASSAY: Navigating the Kinome. (Class of assay: other) Panel member name: JAK3

>  <BAO Format>  (852) 
assay format

>  <Target>  (852) 
CHEMBL2148

>  <Target Pref. Name>  (852) 
Tyrosine-protein kinase JAK3

>  <Target Organism>  (852) 
Homo sapiens

>  <Target Type>  (852) 
SINGLE PROTEIN

>  <Document>  (852) 
CHEMBL1201862

>  <Source>  (852) 
PubChem BioAssays

>  <Max Phase>  (852) 
0

>  <#Ro5 Violations>  (852) 
0

>  <Molecular Weight>  (852) 
417.39

>  <Ligand Efficiency BEI>  (852) 
nan

>  <Ligand Efficiency LE>  (852) 
nan

>  <Ligand Efficiency LLE>  (852) 
nan

>  <Ligand Efficiency SEI>  (852) 
nan

>  <ALogP>  (852) 
4.13

>  <Assay Organism>  (852) 
nan

>  <Assay Tissue ChEMBL ID>  (852) 
nan

>  <Assay Tissue Name>  (852) 
nan

>  <Assay Cell Type>  (852) 
nan

>  <Assay Subcellular Fraction>  (852) 
nan

>  <Organism Tax ID>  (852) 
9606

>  <BAO Format ID>  (852) 
BAO_0000019

>  <Published Type>  (852) 
nan

>  <Published Relation>  (852) 
nan

>  <Published Value>  (852) 
nan

>  <Published Units>  (852) 
nan

>  <Canonical Smiles>  (852) 
FC(F)(F)c1cccc2c(NC(=O)Nc3cccc(n3)N4CCOCC4)ccnc12

>  <Data Validity Comment>  (852) 
nan

>  <Document Journal>  (852) 
nan

>  <Document Year>  (852) 
nan

>  <SRC ID>  (852) 
7

>  <UO Units>  (852) 
UO_0000065

>  <Potential Duplicate>  (852) 
False

>  <Class>  (852) 
0

$$$$

     RDKit          2D

 24 26  0  0  0  0  0  0  0  0999 V2000
   -7.5000   -5.1962    0.0000 C   0  0  0  0  0  0  0  0  0  0  0  0
   -6.0000   -5.1962    0.0000 O   0  0  0  0  0  0  0  0  0  0  0  0
   -5.2500   -3.8971    0.0000 C   0  0  0  0  0  0  0  0  0  0  0  0
   -6.0000   -2.5981    0.0000 C   0  0  0  0  0  0  0  0  0  0  0  0
   -5.2500   -1.2990    0.0000 C   0  0  0  0  0  0  0  0  0  0  0  0
   -3.7500   -1.2990    0.0000 C   0  0  0  0  0  0  0  0  0  0  0  0
   -3.0000    0.0000    0.0000 C   0  0  0  0  0  0  0  0  0  0  0  0
   -3.7500    1.2990    0.0000 C   0  0  0  0  0  0  0  0  0  0  0  0
   -5.2418    1.4558    0.0000 C   0  0  0  0  0  0  0  0  0  0  0  0
   -6.2455    0.3411    0.0000 O   0  0  0  0  0  0  0  0  0  0  0  0
   -5.5537    2.9231    0.0000 O   0  0  0  0  0  0  0  0  0  0  0  0
   -4.2546    3.6731    0.0000 N   0  0  0  0  0  0  0  0  0  0  0  0
   -3.1399    2.6694    0.0000 C   0  0  0  0  0  0  0  0  0  0  0  0
   -1.6727    2.9812    0.0000 C   0  0  0  0  0  0  0  0  0  0  0  0
   -1.2091    4.4078    0.0000 C   0  0  0  0  0  0  0  0  0  0  0  0
    0.2581    4.7197    0.0000 C   0  0  0  0  0  0  0  0  0  0  0  0
    1.2618    3.6050    0.0000 C   0  0  0  0  0  0  0  0  0  0  0  0
    2.7290    3.9168    0.0000 Br  0  0  0  0  0  0  0  0  0  0  0  0
    0.7982    2.1784    0.0000 C   0  0  0  0  0  0  0  0  0  0  0  0
   -0.6690    1.8665    0.0000 C   0  0  0  0  0  0  0  0  0  0  0  0
   -3.0000   -2.5981    0.0000 C   0  0  0  0  0  0  0  0  0  0  0  0
   -3.7500   -3.8971    0.0000 C   0  0  0  0  0  0  0  0  0  0  0  0
   -3.0000   -5.1962    0.0000 O   0  0  0  0  0  0  0  0  0  0  0  0
   -1.5000   -5.1962    0.0000 C   0  0  0  0  0  0  0  0  0  0  0  0
  1  2  1  0
  2  3  1  0
  3  4  2  0
  4  5  1  0
  5  6  2  0
  6  7  1  0
  7  8  2  3
  8  9  1  0
  9 10  2  0
  9 11  1  0
 11 12  1  0
 12 13  2  0
 13 14  1  0
 14 15  2  0
 15 16  1  0
 16 17  2  0
 17 18  1  0
 17 19  1  0
 19 20  2  0
  6 21  1  0
 21 22  2  0
 22 23  1  0
 23 24  1  0
 22  3  1  0
 13  8  1  0
 20 14  1  0
M  END
>  <Molecule>  (853) 
CHEMBL1991434

>  <Standard Type>  (853) 
Ki

>  <Standard Relation>  (853) 
>

>  <Standard Value>  (853) 
1584.89

>  <Standard Units>  (853) 
nM

>  <pChEMBL Value>  (853) 
nan

>  <Comment>  (853) 
inactive

>  <Compound Key>  (853) 
SID103905415

>  <Assay>  (853) 
CHEMBL1963742

>  <Assay Description>  (853) 
PUBCHEM_BIOASSAY: Navigating the Kinome. (Class of assay: other) Panel member name: JAK3

>  <BAO Format>  (853) 
assay format

>  <Target>  (853) 
CHEMBL2148

>  <Target Pref. Name>  (853) 
Tyrosine-protein kinase JAK3

>  <Target Organism>  (853) 
Homo sapiens

>  <Target Type>  (853) 
SINGLE PROTEIN

>  <Document>  (853) 
CHEMBL1201862

>  <Source>  (853) 
PubChem BioAssays

>  <Max Phase>  (853) 
0

>  <#Ro5 Violations>  (853) 
0

>  <Molecular Weight>  (853) 
388.22

>  <Ligand Efficiency BEI>  (853) 
nan

>  <Ligand Efficiency LE>  (853) 
nan

>  <Ligand Efficiency LLE>  (853) 
nan

>  <Ligand Efficiency SEI>  (853) 
nan

>  <ALogP>  (853) 
3.81

>  <Assay Organism>  (853) 
nan

>  <Assay Tissue ChEMBL ID>  (853) 
nan

>  <Assay Tissue Name>  (853) 
nan

>  <Assay Cell Type>  (853) 
nan

>  <Assay Subcellular Fraction>  (853) 
nan

>  <Organism Tax ID>  (853) 
9606

>  <BAO Format ID>  (853) 
BAO_0000019

>  <Published Type>  (853) 
nan

>  <Published Relation>  (853) 
nan

>  <Published Value>  (853) 
nan

>  <Published Units>  (853) 
nan

>  <Canonical Smiles>  (853) 
COc1ccc(C=C2C(=O)ON=C2c3ccc(Br)cc3)cc1OC

>  <Data Validity Comment>  (853) 
nan

>  <Document Journal>  (853) 
nan

>  <Document Year>  (853) 
nan

>  <SRC ID>  (853) 
7

>  <UO Units>  (853) 
UO_0000065

>  <Potential Duplicate>  (853) 
False

>  <Class>  (853) 
0

$$$$

     RDKit          2D

 26 29  0  0  0  0  0  0  0  0999 V2000
   -7.1291    1.0153    0.0000 C   0  0  0  0  0  0  0  0  0  0  0  0
   -6.5190    2.3856    0.0000 N   0  0  0  0  0  0  0  0  0  0  0  0
   -7.4006    3.5992    0.0000 C   0  0  0  0  0  0  0  0  0  0  0  0
   -5.0272    2.5424    0.0000 C   0  0  0  0  0  0  0  0  0  0  0  0
   -4.1455    1.3289    0.0000 O   0  0  0  0  0  0  0  0  0  0  0  0
   -4.4171    3.9127    0.0000 C   0  0  0  0  0  0  0  0  0  0  0  0
   -2.9499    4.2246    0.0000 C   0  0  0  0  0  0  0  0  0  0  0  0
   -2.7931    5.7164    0.0000 N   0  0  0  0  0  0  0  0  0  0  0  0
   -4.1634    6.3265    0.0000 N   0  0  0  0  0  0  0  0  0  0  0  0
   -5.1671    5.2118    0.0000 N   0  0  0  0  0  0  0  0  0  0  0  0
   -6.6589    5.3686    0.0000 C   0  0  0  0  0  0  0  0  0  0  0  0
   -7.2690    6.7389    0.0000 C   0  0  0  0  0  0  0  0  0  0  0  0
   -6.3873    7.9524    0.0000 C   0  0  0  0  0  0  0  0  0  0  0  0
   -6.9974    9.3227    0.0000 C   0  0  0  0  0  0  0  0  0  0  0  0
   -8.4892    9.4795    0.0000 C   0  0  0  0  0  0  0  0  0  0  0  0
   -9.3709    8.2660    0.0000 C   0  0  0  0  0  0  0  0  0  0  0  0
   -8.7607    6.8957    0.0000 C   0  0  0  0  0  0  0  0  0  0  0  0
   -1.8351    3.2209    0.0000 C   0  0  0  0  0  0  0  0  0  0  0  0
   -0.4086    3.6844    0.0000 C   0  0  0  0  0  0  0  0  0  0  0  0
    0.7062    2.6807    0.0000 C   0  0  0  0  0  0  0  0  0  0  0  0
    0.3943    1.2135    0.0000 C   0  0  0  0  0  0  0  0  0  0  0  0
    1.2760    0.0000    0.0000 N   0  0  0  0  0  0  0  0  0  0  0  0
    0.3943   -1.2135    0.0000 N   0  0  0  0  0  0  0  0  0  0  0  0
   -1.0323   -0.7500    0.0000 C   0  0  0  0  0  0  0  0  0  0  0  0
   -1.0323    0.7500    0.0000 C   0  0  0  0  0  0  0  0  0  0  0  0
   -2.1470    1.7537    0.0000 C   0  0  0  0  0  0  0  0  0  0  0  0
  1  2  1  0
  2  3  1  0
  2  4  1  0
  4  5  2  0
  4  6  1  0
  6  7  2  0
  7  8  1  0
  8  9  2  0
  9 10  1  0
 10 11  1  0
 11 12  1  0
 12 13  2  0
 13 14  1  0
 14 15  2  0
 15 16  1  0
 16 17  2  0
  7 18  1  0
 18 19  2  0
 19 20  1  0
 20 21  2  0
 21 22  1  0
 22 23  1  0
 23 24  2  0
 24 25  1  0
 25 26  2  0
 10  6  1  0
 17 12  1  0
 26 18  1  0
 25 21  1  0
M  END
>  <Molecule>  (854) 
CHEMBL1996111

>  <Standard Type>  (854) 
Ki

>  <Standard Relation>  (854) 
=

>  <Standard Value>  (854) 
1000.0

>  <Standard Units>  (854) 
nM

>  <pChEMBL Value>  (854) 
6.0

>  <Comment>  (854) 
active

>  <Compound Key>  (854) 
SID103904518

>  <Assay>  (854) 
CHEMBL1963742

>  <Assay Description>  (854) 
PUBCHEM_BIOASSAY: Navigating the Kinome. (Class of assay: other) Panel member name: JAK3

>  <BAO Format>  (854) 
assay format

>  <Target>  (854) 
CHEMBL2148

>  <Target Pref. Name>  (854) 
Tyrosine-protein kinase JAK3

>  <Target Organism>  (854) 
Homo sapiens

>  <Target Type>  (854) 
SINGLE PROTEIN

>  <Document>  (854) 
CHEMBL1201862

>  <Source>  (854) 
PubChem BioAssays

>  <Max Phase>  (854) 
0

>  <#Ro5 Violations>  (854) 
0

>  <Molecular Weight>  (854) 
346.39

>  <Ligand Efficiency BEI>  (854) 
nan

>  <Ligand Efficiency LE>  (854) 
nan

>  <Ligand Efficiency LLE>  (854) 
nan

>  <Ligand Efficiency SEI>  (854) 
nan

>  <ALogP>  (854) 
2.57

>  <Assay Organism>  (854) 
nan

>  <Assay Tissue ChEMBL ID>  (854) 
nan

>  <Assay Tissue Name>  (854) 
nan

>  <Assay Cell Type>  (854) 
nan

>  <Assay Subcellular Fraction>  (854) 
nan

>  <Organism Tax ID>  (854) 
9606

>  <BAO Format ID>  (854) 
BAO_0000019

>  <Published Type>  (854) 
nan

>  <Published Relation>  (854) 
nan

>  <Published Value>  (854) 
nan

>  <Published Units>  (854) 
nan

>  <Canonical Smiles>  (854) 
CN(C)C(=O)c1c(nnn1Cc2ccccc2)c3ccc4[nH]ncc4c3

>  <Data Validity Comment>  (854) 
nan

>  <Document Journal>  (854) 
nan

>  <Document Year>  (854) 
nan

>  <SRC ID>  (854) 
7

>  <UO Units>  (854) 
UO_0000065

>  <Potential Duplicate>  (854) 
False

>  <Class>  (854) 
1

$$$$

     RDKit          2D

 25 27  0  0  0  0  0  0  0  0999 V2000
    3.7500   -1.2990    0.0000 C   0  0  0  0  0  0  0  0  0  0  0  0
    3.0000    0.0000    0.0000 O   0  0  0  0  0  0  0  0  0  0  0  0
    1.5000    0.0000    0.0000 C   0  0  0  0  0  0  0  0  0  0  0  0
    0.7500   -1.2990    0.0000 C   0  0  0  0  0  0  0  0  0  0  0  0
   -0.7500   -1.2990    0.0000 C   0  0  0  0  0  0  0  0  0  0  0  0
   -1.5000    0.0000    0.0000 C   0  0  0  0  0  0  0  0  0  0  0  0
   -0.7500    1.2990    0.0000 C   0  0  0  0  0  0  0  0  0  0  0  0
    0.7500    1.2990    0.0000 C   0  0  0  0  0  0  0  0  0  0  0  0
   -1.5000    2.5981    0.0000 C   0  0  0  0  0  0  0  0  0  0  0  0
   -0.7500    3.8971    0.0000 C   0  0  0  0  0  0  0  0  0  0  0  0
   -3.0000    2.5981    0.0000 N   0  0  0  0  0  0  0  0  0  0  0  0
   -3.7500    3.8971    0.0000 C   0  0  0  0  0  0  0  0  0  0  0  0
   -3.0000    5.1962    0.0000 O   0  0  0  0  0  0  0  0  0  0  0  0
   -5.2500    3.8971    0.0000 C   0  0  0  0  0  0  0  0  0  0  0  0
   -6.0000    5.1962    0.0000 C   0  0  0  0  0  0  0  0  0  0  0  0
   -7.5000    5.1962    0.0000 C   0  0  0  0  0  0  0  0  0  0  0  0
   -8.2500    3.8971    0.0000 C   0  0  0  0  0  0  0  0  0  0  0  0
   -7.5000    2.5981    0.0000 C   0  0  0  0  0  0  0  0  0  0  0  0
   -6.0000    2.5981    0.0000 C   0  0  0  0  0  0  0  0  0  0  0  0
   -9.7500    3.8971    0.0000 C   0  0  0  0  0  0  0  0  0  0  0  0
  -10.5000    5.1962    0.0000 C   0  0  0  0  0  0  0  0  0  0  0  0
  -12.0000    5.1962    0.0000 C   0  0  0  0  0  0  0  0  0  0  0  0
  -12.7500    3.8971    0.0000 N   0  0  0  0  0  0  0  0  0  0  0  0
  -12.0000    2.5981    0.0000 C   0  0  0  0  0  0  0  0  0  0  0  0
  -10.5000    2.5981    0.0000 N   0  0  0  0  0  0  0  0  0  0  0  0
  1  2  1  0
  2  3  1  0
  3  4  2  0
  4  5  1  0
  5  6  2  0
  6  7  1  0
  7  8  2  0
  7  9  1  0
  9 10  1  0
  9 11  1  0
 11 12  1  0
 12 13  2  0
 12 14  1  0
 14 15  2  0
 15 16  1  0
 16 17  2  0
 17 18  1  0
 18 19  2  0
 17 20  1  0
 20 21  2  0
 21 22  1  0
 22 23  2  0
 23 24  1  0
 24 25  2  0
  8  3  1  0
 19 14  1  0
 25 20  1  0
M  END
>  <Molecule>  (855) 
CHEMBL2004872

>  <Standard Type>  (855) 
Ki

>  <Standard Relation>  (855) 
>

>  <Standard Value>  (855) 
1584.89

>  <Standard Units>  (855) 
nM

>  <pChEMBL Value>  (855) 
nan

>  <Comment>  (855) 
inactive

>  <Compound Key>  (855) 
SID103905121

>  <Assay>  (855) 
CHEMBL1963742

>  <Assay Description>  (855) 
PUBCHEM_BIOASSAY: Navigating the Kinome. (Class of assay: other) Panel member name: JAK3

>  <BAO Format>  (855) 
assay format

>  <Target>  (855) 
CHEMBL2148

>  <Target Pref. Name>  (855) 
Tyrosine-protein kinase JAK3

>  <Target Organism>  (855) 
Homo sapiens

>  <Target Type>  (855) 
SINGLE PROTEIN

>  <Document>  (855) 
CHEMBL1201862

>  <Source>  (855) 
PubChem BioAssays

>  <Max Phase>  (855) 
0

>  <#Ro5 Violations>  (855) 
0

>  <Molecular Weight>  (855) 
333.39

>  <Ligand Efficiency BEI>  (855) 
nan

>  <Ligand Efficiency LE>  (855) 
nan

>  <Ligand Efficiency LLE>  (855) 
nan

>  <Ligand Efficiency SEI>  (855) 
nan

>  <ALogP>  (855) 
3.64

>  <Assay Organism>  (855) 
nan

>  <Assay Tissue ChEMBL ID>  (855) 
nan

>  <Assay Tissue Name>  (855) 
nan

>  <Assay Cell Type>  (855) 
nan

>  <Assay Subcellular Fraction>  (855) 
nan

>  <Organism Tax ID>  (855) 
9606

>  <BAO Format ID>  (855) 
BAO_0000019

>  <Published Type>  (855) 
nan

>  <Published Relation>  (855) 
nan

>  <Published Value>  (855) 
nan

>  <Published Units>  (855) 
nan

>  <Canonical Smiles>  (855) 
COc1cccc(c1)C(C)NC(=O)c2ccc(cc2)c3ccncn3

>  <Data Validity Comment>  (855) 
nan

>  <Document Journal>  (855) 
nan

>  <Document Year>  (855) 
nan

>  <SRC ID>  (855) 
7

>  <UO Units>  (855) 
UO_0000065

>  <Potential Duplicate>  (855) 
False

>  <Class>  (855) 
0

$$$$

     RDKit          2D

 25 27  0  0  0  0  0  0  0  0999 V2000
    3.0000    0.0000    0.0000 C   0  0  0  0  0  0  0  0  0  0  0  0
    1.5000    0.0000    0.0000 C   0  0  0  0  0  0  0  0  0  0  0  0
    0.7500   -1.2990    0.0000 C   0  0  0  0  0  0  0  0  0  0  0  0
   -0.7500   -1.2990    0.0000 C   0  0  0  0  0  0  0  0  0  0  0  0
   -1.5000   -2.5981    0.0000 O   0  0  0  0  0  0  0  0  0  0  0  0
   -3.0000   -2.5981    0.0000 C   0  0  0  0  0  0  0  0  0  0  0  0
   -3.7500   -3.8971    0.0000 C   0  0  0  0  0  0  0  0  0  0  0  0
   -5.2500   -3.8971    0.0000 C   0  0  0  0  0  0  0  0  0  0  0  0
   -6.0000   -5.1962    0.0000 C   0  0  0  0  0  0  0  0  0  0  0  0
   -5.2500   -6.4952    0.0000 C   0  0  0  0  0  0  0  0  0  0  0  0
   -6.0000   -7.7942    0.0000 Cl  0  0  0  0  0  0  0  0  0  0  0  0
   -3.7500   -6.4952    0.0000 C   0  0  0  0  0  0  0  0  0  0  0  0
   -3.0000   -7.7942    0.0000 Cl  0  0  0  0  0  0  0  0  0  0  0  0
   -3.0000   -5.1962    0.0000 C   0  0  0  0  0  0  0  0  0  0  0  0
   -1.5000    0.0000    0.0000 C   0  0  0  0  0  0  0  0  0  0  0  0
   -0.7500    1.2990    0.0000 C   0  0  0  0  0  0  0  0  0  0  0  0
    0.7500    1.2990    0.0000 C   0  0  0  0  0  0  0  0  0  0  0  0
    1.5000    2.5981    0.0000 C   0  0  0  0  0  0  0  0  0  0  0  0
    0.7500    3.8971    0.0000 N   0  0  0  0  0  0  0  0  0  0  0  0
    1.1382    5.3460    0.0000 C   0  0  0  0  0  0  0  0  0  0  0  0
   -0.3107    5.7342    0.0000 C   0  0  0  0  0  0  0  0  0  0  0  0
   -0.6989    4.2853    0.0000 C   0  0  0  0  0  0  0  0  0  0  0  0
   -1.0607    7.0333    0.0000 C   0  0  0  0  0  0  0  0  0  0  0  0
   -2.5607    7.0333    0.0000 O   0  0  0  0  0  0  0  0  0  0  0  0
   -0.3107    8.3323    0.0000 O   0  0  0  0  0  0  0  0  0  0  0  0
  1  2  1  0
  2  3  2  0
  3  4  1  0
  4  5  1  0
  5  6  1  0
  6  7  1  0
  7  8  2  0
  8  9  1  0
  9 10  2  0
 10 11  1  0
 10 12  1  0
 12 13  1  0
 12 14  2  0
  4 15  2  0
 15 16  1  0
 16 17  2  0
 17 18  1  0
 18 19  1  0
 19 20  1  0
 20 21  1  0
 21 22  1  0
 21 23  1  0
 23 24  2  0
 23 25  1  0
 17  2  1  0
 14  7  1  0
 22 19  1  0
M  END
>  <Molecule>  (856) 
CHEMBL1990223

>  <Standard Type>  (856) 
Ki

>  <Standard Relation>  (856) 
>

>  <Standard Value>  (856) 
5011.87

>  <Standard Units>  (856) 
nM

>  <pChEMBL Value>  (856) 
nan

>  <Comment>  (856) 
inactive

>  <Compound Key>  (856) 
SID103905131

>  <Assay>  (856) 
CHEMBL1963742

>  <Assay Description>  (856) 
PUBCHEM_BIOASSAY: Navigating the Kinome. (Class of assay: other) Panel member name: JAK3

>  <BAO Format>  (856) 
assay format

>  <Target>  (856) 
CHEMBL2148

>  <Target Pref. Name>  (856) 
Tyrosine-protein kinase JAK3

>  <Target Organism>  (856) 
Homo sapiens

>  <Target Type>  (856) 
SINGLE PROTEIN

>  <Document>  (856) 
CHEMBL1201862

>  <Source>  (856) 
PubChem BioAssays

>  <Max Phase>  (856) 
0

>  <#Ro5 Violations>  (856) 
0

>  <Molecular Weight>  (856) 
380.27

>  <Ligand Efficiency BEI>  (856) 
nan

>  <Ligand Efficiency LE>  (856) 
nan

>  <Ligand Efficiency LLE>  (856) 
nan

>  <Ligand Efficiency SEI>  (856) 
nan

>  <ALogP>  (856) 
4.4

>  <Assay Organism>  (856) 
nan

>  <Assay Tissue ChEMBL ID>  (856) 
nan

>  <Assay Tissue Name>  (856) 
nan

>  <Assay Cell Type>  (856) 
nan

>  <Assay Subcellular Fraction>  (856) 
nan

>  <Organism Tax ID>  (856) 
9606

>  <BAO Format ID>  (856) 
BAO_0000019

>  <Published Type>  (856) 
nan

>  <Published Relation>  (856) 
nan

>  <Published Value>  (856) 
nan

>  <Published Units>  (856) 
nan

>  <Canonical Smiles>  (856) 
Cc1cc(OCc2ccc(Cl)c(Cl)c2)ccc1CN3CC(C3)C(=O)O

>  <Data Validity Comment>  (856) 
nan

>  <Document Journal>  (856) 
nan

>  <Document Year>  (856) 
nan

>  <SRC ID>  (856) 
7

>  <UO Units>  (856) 
UO_0000065

>  <Potential Duplicate>  (856) 
False

>  <Class>  (856) 
0

$$$$

     RDKit          2D

 21 22  0  0  0  0  0  0  0  0999 V2000
    2.7990   -1.8481    0.0000 C   0  0  0  0  0  0  0  0  0  0  0  0
    1.5000   -2.5981    0.0000 C   0  0  0  0  0  0  0  0  0  0  0  0
    0.2010   -3.3481    0.0000 C   0  0  0  0  0  0  0  0  0  0  0  0
    0.7500   -1.2990    0.0000 C   0  0  0  0  0  0  0  0  0  0  0  0
    1.5000    0.0000    0.0000 C   0  0  0  0  0  0  0  0  0  0  0  0
    0.7500    1.2990    0.0000 C   0  0  0  0  0  0  0  0  0  0  0  0
    1.5000    2.5981    0.0000 Br  0  0  0  0  0  0  0  0  0  0  0  0
   -0.7500    1.2990    0.0000 C   0  0  0  0  0  0  0  0  0  0  0  0
   -1.5000    2.5981    0.0000 O   0  0  0  0  0  0  0  0  0  0  0  0
   -1.5000    0.0000    0.0000 C   0  0  0  0  0  0  0  0  0  0  0  0
   -3.0000    0.0000    0.0000 I   0  0  0  0  0  0  0  0  0  0  0  0
   -0.7500   -1.2990    0.0000 C   0  0  0  0  0  0  0  0  0  0  0  0
    2.2500   -3.8971    0.0000 C   0  0  0  0  0  0  0  0  0  0  0  0
    1.5000   -5.1962    0.0000 C   0  0  0  0  0  0  0  0  0  0  0  0
    2.2500   -6.4952    0.0000 C   0  0  0  0  0  0  0  0  0  0  0  0
    1.5000   -7.7942    0.0000 Br  0  0  0  0  0  0  0  0  0  0  0  0
    3.7500   -6.4952    0.0000 C   0  0  0  0  0  0  0  0  0  0  0  0
    4.5000   -7.7942    0.0000 O   0  0  0  0  0  0  0  0  0  0  0  0
    4.5000   -5.1962    0.0000 C   0  0  0  0  0  0  0  0  0  0  0  0
    6.0000   -5.1962    0.0000 I   0  0  0  0  0  0  0  0  0  0  0  0
    3.7500   -3.8971    0.0000 C   0  0  0  0  0  0  0  0  0  0  0  0
  1  2  1  0
  2  3  1  0
  2  4  1  0
  4  5  2  0
  5  6  1  0
  6  7  1  0
  6  8  2  0
  8  9  1  0
  8 10  1  0
 10 11  1  0
 10 12  2  0
  2 13  1  0
 13 14  2  0
 14 15  1  0
 15 16  1  0
 15 17  2  0
 17 18  1  0
 17 19  1  0
 19 20  1  0
 19 21  2  0
 12  4  1  0
 21 13  1  0
M  END
>  <Molecule>  (857) 
CHEMBL1964382

>  <Standard Type>  (857) 
Ki

>  <Standard Relation>  (857) 
>

>  <Standard Value>  (857) 
5011.87

>  <Standard Units>  (857) 
nM

>  <pChEMBL Value>  (857) 
nan

>  <Comment>  (857) 
inactive

>  <Compound Key>  (857) 
SID103905179

>  <Assay>  (857) 
CHEMBL1963742

>  <Assay Description>  (857) 
PUBCHEM_BIOASSAY: Navigating the Kinome. (Class of assay: other) Panel member name: JAK3

>  <BAO Format>  (857) 
assay format

>  <Target>  (857) 
CHEMBL2148

>  <Target Pref. Name>  (857) 
Tyrosine-protein kinase JAK3

>  <Target Organism>  (857) 
Homo sapiens

>  <Target Type>  (857) 
SINGLE PROTEIN

>  <Document>  (857) 
CHEMBL1201862

>  <Source>  (857) 
PubChem BioAssays

>  <Max Phase>  (857) 
0

>  <#Ro5 Violations>  (857) 
2

>  <Molecular Weight>  (857) 
637.87

>  <Ligand Efficiency BEI>  (857) 
nan

>  <Ligand Efficiency LE>  (857) 
nan

>  <Ligand Efficiency LLE>  (857) 
nan

>  <Ligand Efficiency SEI>  (857) 
nan

>  <ALogP>  (857) 
6.16

>  <Assay Organism>  (857) 
nan

>  <Assay Tissue ChEMBL ID>  (857) 
nan

>  <Assay Tissue Name>  (857) 
nan

>  <Assay Cell Type>  (857) 
nan

>  <Assay Subcellular Fraction>  (857) 
nan

>  <Organism Tax ID>  (857) 
9606

>  <BAO Format ID>  (857) 
BAO_0000019

>  <Published Type>  (857) 
nan

>  <Published Relation>  (857) 
nan

>  <Published Value>  (857) 
nan

>  <Published Units>  (857) 
nan

>  <Canonical Smiles>  (857) 
CC(C)(c1cc(Br)c(O)c(I)c1)c2cc(Br)c(O)c(I)c2

>  <Data Validity Comment>  (857) 
nan

>  <Document Journal>  (857) 
nan

>  <Document Year>  (857) 
nan

>  <SRC ID>  (857) 
7

>  <UO Units>  (857) 
UO_0000065

>  <Potential Duplicate>  (857) 
False

>  <Class>  (857) 
0

$$$$

     RDKit          2D

 34 37  0  0  0  0  0  0  0  0999 V2000
   -0.7500   -6.4952    0.0000 C   0  0  0  0  0  0  0  0  0  0  0  0
    0.7500   -6.4952    0.0000 O   0  0  0  0  0  0  0  0  0  0  0  0
    1.5000   -5.1962    0.0000 C   0  0  0  0  0  0  0  0  0  0  0  0
    0.7500   -3.8971    0.0000 C   0  0  0  0  0  0  0  0  0  0  0  0
    1.5000   -2.5981    0.0000 C   0  0  0  0  0  0  0  0  0  0  0  0
    3.0000   -2.5981    0.0000 C   0  0  0  0  0  0  0  0  0  0  0  0
    3.7500   -3.8971    0.0000 C   0  0  0  0  0  0  0  0  0  0  0  0
    3.0000   -5.1962    0.0000 C   0  0  0  0  0  0  0  0  0  0  0  0
    3.7500   -6.4952    0.0000 O   0  0  0  0  0  0  0  0  0  0  0  0
    0.7500   -1.2990    0.0000 C   0  0  0  0  0  0  0  0  0  0  0  0
    1.5000    0.0000    0.0000 C   0  0  0  0  0  0  0  0  0  0  0  0
    0.7500    1.2990    0.0000 C   0  0  0  0  0  0  0  0  0  0  0  0
   -0.7500    1.2990    0.0000 C   0  0  0  0  0  0  0  0  0  0  0  0
   -1.2980    2.6953    0.0000 C   0  0  0  0  0  0  0  0  0  0  0  0
   -0.2778    3.7949    0.0000 O   0  0  0  0  0  0  0  0  0  0  0  0
   -2.7314    3.1375    0.0000 N   0  0  0  0  0  0  0  0  0  0  0  0
   -3.9707    2.2925    0.0000 C   0  0  0  0  0  0  0  0  0  0  0  0
   -5.2101    3.1375    0.0000 C   0  0  0  0  0  0  0  0  0  0  0  0
   -6.5615    2.4867    0.0000 C   0  0  0  0  0  0  0  0  0  0  0  0
   -6.6736    0.9909    0.0000 C   0  0  0  0  0  0  0  0  0  0  0  0
   -5.4343    0.1459    0.0000 C   0  0  0  0  0  0  0  0  0  0  0  0
   -4.0828    0.7967    0.0000 C   0  0  0  0  0  0  0  0  0  0  0  0
   -2.9832   -0.2236    0.0000 N   0  0  0  0  0  0  0  0  0  0  0  0
   -1.5000    0.0000    0.0000 C   0  0  0  0  0  0  0  0  0  0  0  0
   -0.7500   -1.2990    0.0000 C   0  0  0  0  0  0  0  0  0  0  0  0
   -7.8009    3.3316    0.0000 C   0  0  0  0  0  0  0  0  0  0  0  0
   -9.1524    2.6808    0.0000 O   0  0  0  0  0  0  0  0  0  0  0  0
   -7.6888    4.8274    0.0000 N   0  0  0  0  0  0  0  0  0  0  0  0
   -8.9282    5.6724    0.0000 C   0  0  0  0  0  0  0  0  0  0  0  0
   -8.8161    7.1682    0.0000 C   0  0  0  0  0  0  0  0  0  0  0  0
  -10.0554    8.0132    0.0000 N   0  0  0  0  0  0  0  0  0  0  0  0
   -9.9433    9.5090    0.0000 C   0  0  0  0  0  0  0  0  0  0  0  0
   -8.5919   10.1598    0.0000 O   0  0  0  0  0  0  0  0  0  0  0  0
  -11.1827   10.3540    0.0000 C   0  0  0  0  0  0  0  0  0  0  0  0
  1  2  1  0
  2  3  1  0
  3  4  2  0
  4  5  1  0
  5  6  2  0
  6  7  1  0
  7  8  2  0
  8  9  1  0
  5 10  1  0
 10 11  2  0
 11 12  1  0
 12 13  2  0
 13 14  1  0
 14 15  2  0
 14 16  1  0
 16 17  1  0
 17 18  2  0
 18 19  1  0
 19 20  2  0
 20 21  1  0
 21 22  2  0
 22 23  1  0
 23 24  1  0
 24 25  2  0
 19 26  1  0
 26 27  2  0
 26 28  1  0
 28 29  1  0
 29 30  1  0
 30 31  1  0
 31 32  1  0
 32 33  2  0
 32 34  1  0
  8  3  1  0
 25 10  1  0
 24 13  1  0
 22 17  1  0
M  END
>  <Molecule>  (858) 
CHEMBL1975500

>  <Standard Type>  (858) 
Ki

>  <Standard Relation>  (858) 
>

>  <Standard Value>  (858) 
1584.89

>  <Standard Units>  (858) 
nM

>  <pChEMBL Value>  (858) 
nan

>  <Comment>  (858) 
inactive

>  <Compound Key>  (858) 
SID103904712

>  <Assay>  (858) 
CHEMBL1963742

>  <Assay Description>  (858) 
PUBCHEM_BIOASSAY: Navigating the Kinome. (Class of assay: other) Panel member name: JAK3

>  <BAO Format>  (858) 
assay format

>  <Target>  (858) 
CHEMBL2148

>  <Target Pref. Name>  (858) 
Tyrosine-protein kinase JAK3

>  <Target Organism>  (858) 
Homo sapiens

>  <Target Type>  (858) 
SINGLE PROTEIN

>  <Document>  (858) 
CHEMBL1201862

>  <Source>  (858) 
PubChem BioAssays

>  <Max Phase>  (858) 
0

>  <#Ro5 Violations>  (858) 
0

>  <Molecular Weight>  (858) 
460.49

>  <Ligand Efficiency BEI>  (858) 
nan

>  <Ligand Efficiency LE>  (858) 
nan

>  <Ligand Efficiency LLE>  (858) 
nan

>  <Ligand Efficiency SEI>  (858) 
nan

>  <ALogP>  (858) 
3.24

>  <Assay Organism>  (858) 
nan

>  <Assay Tissue ChEMBL ID>  (858) 
nan

>  <Assay Tissue Name>  (858) 
nan

>  <Assay Cell Type>  (858) 
nan

>  <Assay Subcellular Fraction>  (858) 
nan

>  <Organism Tax ID>  (858) 
9606

>  <BAO Format ID>  (858) 
BAO_0000019

>  <Published Type>  (858) 
nan

>  <Published Relation>  (858) 
nan

>  <Published Value>  (858) 
nan

>  <Published Units>  (858) 
nan

>  <Canonical Smiles>  (858) 
COc1cc(ccc1O)c2ccc3C(=O)Nc4cc(ccc4Nc3c2)C(=O)NCCNC(=O)C

>  <Data Validity Comment>  (858) 
nan

>  <Document Journal>  (858) 
nan

>  <Document Year>  (858) 
nan

>  <SRC ID>  (858) 
7

>  <UO Units>  (858) 
UO_0000065

>  <Potential Duplicate>  (858) 
False

>  <Class>  (858) 
0

$$$$

     RDKit          2D

 18 19  0  0  0  0  0  0  0  0999 V2000
   -6.1170   -7.0506    0.0000 N   0  0  0  0  0  0  0  0  0  0  0  0
   -4.6904   -6.5871    0.0000 C   0  0  0  0  0  0  0  0  0  0  0  0
   -4.3786   -5.1199    0.0000 C   0  0  0  0  0  0  0  0  0  0  0  0
   -5.4933   -4.1162    0.0000 O   0  0  0  0  0  0  0  0  0  0  0  0
   -2.9520   -4.6564    0.0000 C   0  0  0  0  0  0  0  0  0  0  0  0
   -1.8373   -5.6601    0.0000 O   0  0  0  0  0  0  0  0  0  0  0  0
   -2.6401   -3.1891    0.0000 C   0  0  0  0  0  0  0  0  0  0  0  0
   -1.2135   -2.7256    0.0000 N   0  0  0  0  0  0  0  0  0  0  0  0
   -0.0000   -3.6073    0.0000 C   0  0  0  0  0  0  0  0  0  0  0  0
    1.2135   -2.7256    0.0000 C   0  0  0  0  0  0  0  0  0  0  0  0
    2.6401   -3.1891    0.0000 I   0  0  0  0  0  0  0  0  0  0  0  0
    0.7500   -1.2990    0.0000 C   0  0  0  0  0  0  0  0  0  0  0  0
    1.5000    0.0000    0.0000 C   0  0  0  0  0  0  0  0  0  0  0  0
    3.0000    0.0000    0.0000 N   0  0  0  0  0  0  0  0  0  0  0  0
    0.7500    1.2990    0.0000 N   0  0  0  0  0  0  0  0  0  0  0  0
   -0.7500    1.2990    0.0000 C   0  0  0  0  0  0  0  0  0  0  0  0
   -1.5000    0.0000    0.0000 N   0  0  0  0  0  0  0  0  0  0  0  0
   -0.7500   -1.2990    0.0000 C   0  0  0  0  0  0  0  0  0  0  0  0
  1  2  1  0
  2  3  1  0
  3  4  1  0
  3  5  1  0
  5  6  1  0
  5  7  1  0
  7  8  1  0
  8  9  1  0
  9 10  2  0
 10 11  1  0
 10 12  1  0
 12 13  2  0
 13 14  1  0
 13 15  1  0
 15 16  2  0
 16 17  1  0
 17 18  2  0
 18  8  1  0
 18 12  1  0
M  END
>  <Molecule>  (859) 
CHEMBL1975534

>  <Standard Type>  (859) 
Ki

>  <Standard Relation>  (859) 
>

>  <Standard Value>  (859) 
1584.89

>  <Standard Units>  (859) 
nM

>  <pChEMBL Value>  (859) 
nan

>  <Comment>  (859) 
inactive

>  <Compound Key>  (859) 
SID103905378

>  <Assay>  (859) 
CHEMBL1963742

>  <Assay Description>  (859) 
PUBCHEM_BIOASSAY: Navigating the Kinome. (Class of assay: other) Panel member name: JAK3

>  <BAO Format>  (859) 
assay format

>  <Target>  (859) 
CHEMBL2148

>  <Target Pref. Name>  (859) 
Tyrosine-protein kinase JAK3

>  <Target Organism>  (859) 
Homo sapiens

>  <Target Type>  (859) 
SINGLE PROTEIN

>  <Document>  (859) 
CHEMBL1201862

>  <Source>  (859) 
PubChem BioAssays

>  <Max Phase>  (859) 
0

>  <#Ro5 Violations>  (859) 
0

>  <Molecular Weight>  (859) 
363.16

>  <Ligand Efficiency BEI>  (859) 
nan

>  <Ligand Efficiency LE>  (859) 
nan

>  <Ligand Efficiency LLE>  (859) 
nan

>  <Ligand Efficiency SEI>  (859) 
nan

>  <ALogP>  (859) 
-0.7

>  <Assay Organism>  (859) 
nan

>  <Assay Tissue ChEMBL ID>  (859) 
nan

>  <Assay Tissue Name>  (859) 
nan

>  <Assay Cell Type>  (859) 
nan

>  <Assay Subcellular Fraction>  (859) 
nan

>  <Organism Tax ID>  (859) 
9606

>  <BAO Format ID>  (859) 
BAO_0000019

>  <Published Type>  (859) 
nan

>  <Published Relation>  (859) 
nan

>  <Published Value>  (859) 
nan

>  <Published Units>  (859) 
nan

>  <Canonical Smiles>  (859) 
NCC(O)C(O)Cn1cc(I)c2c(N)ncnc12

>  <Data Validity Comment>  (859) 
nan

>  <Document Journal>  (859) 
nan

>  <Document Year>  (859) 
nan

>  <SRC ID>  (859) 
7

>  <UO Units>  (859) 
UO_0000065

>  <Potential Duplicate>  (859) 
False

>  <Class>  (859) 
0

$$$$

     RDKit          2D

 22 25  0  0  0  0  0  0  0  0999 V2000
    3.0000   -1.5000    0.0000 C   0  0  0  0  0  0  0  0  0  0  0  0
    3.0000    0.0000    0.0000 C   0  0  0  0  0  0  0  0  0  0  0  0
    3.0000    1.5000    0.0000 C   0  0  0  0  0  0  0  0  0  0  0  0
    4.5000    0.0000    0.0000 C   0  0  0  0  0  0  0  0  0  0  0  0
    1.5000    0.0000    0.0000 C   0  0  0  0  0  0  0  0  0  0  0  0
    0.7500   -1.2990    0.0000 C   0  0  0  0  0  0  0  0  0  0  0  0
   -0.7500   -1.2990    0.0000 C   0  0  0  0  0  0  0  0  0  0  0  0
   -1.5000    0.0000    0.0000 C   0  0  0  0  0  0  0  0  0  0  0  0
   -2.9672    0.3119    0.0000 N   0  0  0  0  0  0  0  0  0  0  0  0
   -3.1240    1.8037    0.0000 C   0  0  0  0  0  0  0  0  0  0  0  0
   -1.7537    2.4138    0.0000 N   0  0  0  0  0  0  0  0  0  0  0  0
   -0.7500    1.2990    0.0000 C   0  0  0  0  0  0  0  0  0  0  0  0
    0.7500    1.2990    0.0000 C   0  0  0  0  0  0  0  0  0  0  0  0
   -4.4231    2.5537    0.0000 C   0  0  0  0  0  0  0  0  0  0  0  0
   -4.5798    4.0454    0.0000 N   0  0  0  0  0  0  0  0  0  0  0  0
   -6.0471    4.3573    0.0000 N   0  0  0  0  0  0  0  0  0  0  0  0
   -6.7971    3.0583    0.0000 C   0  0  0  0  0  0  0  0  0  0  0  0
   -8.2643    2.7464    0.0000 C   0  0  0  0  0  0  0  0  0  0  0  0
   -8.7278    1.3198    0.0000 C   0  0  0  0  0  0  0  0  0  0  0  0
   -7.7241    0.2051    0.0000 C   0  0  0  0  0  0  0  0  0  0  0  0
   -6.2569    0.5170    0.0000 C   0  0  0  0  0  0  0  0  0  0  0  0
   -5.7934    1.9435    0.0000 C   0  0  0  0  0  0  0  0  0  0  0  0
  1  2  1  0
  2  3  1  0
  2  4  1  0
  2  5  1  0
  5  6  2  0
  6  7  1  0
  7  8  2  0
  8  9  1  0
  9 10  2  0
 10 11  1  0
 11 12  1  0
 12 13  2  0
 10 14  1  0
 14 15  2  0
 15 16  1  0
 16 17  1  0
 17 18  2  0
 18 19  1  0
 19 20  2  0
 20 21  1  0
 21 22  2  0
 13  5  1  0
 12  8  1  0
 22 14  1  0
 22 17  1  0
M  END
>  <Molecule>  (860) 
CHEMBL1970104

>  <Standard Type>  (860) 
Ki

>  <Standard Relation>  (860) 
=

>  <Standard Value>  (860) 
398.11

>  <Standard Units>  (860) 
nM

>  <pChEMBL Value>  (860) 
6.4

>  <Comment>  (860) 
active

>  <Compound Key>  (860) 
SID103904906

>  <Assay>  (860) 
CHEMBL1963742

>  <Assay Description>  (860) 
PUBCHEM_BIOASSAY: Navigating the Kinome. (Class of assay: other) Panel member name: JAK3

>  <BAO Format>  (860) 
assay format

>  <Target>  (860) 
CHEMBL2148

>  <Target Pref. Name>  (860) 
Tyrosine-protein kinase JAK3

>  <Target Organism>  (860) 
Homo sapiens

>  <Target Type>  (860) 
SINGLE PROTEIN

>  <Document>  (860) 
CHEMBL1201862

>  <Source>  (860) 
PubChem BioAssays

>  <Max Phase>  (860) 
0

>  <#Ro5 Violations>  (860) 
0

>  <Molecular Weight>  (860) 
290.37

>  <Ligand Efficiency BEI>  (860) 
nan

>  <Ligand Efficiency LE>  (860) 
nan

>  <Ligand Efficiency LLE>  (860) 
nan

>  <Ligand Efficiency SEI>  (860) 
nan

>  <ALogP>  (860) 
4.4

>  <Assay Organism>  (860) 
nan

>  <Assay Tissue ChEMBL ID>  (860) 
nan

>  <Assay Tissue Name>  (860) 
nan

>  <Assay Cell Type>  (860) 
nan

>  <Assay Subcellular Fraction>  (860) 
nan

>  <Organism Tax ID>  (860) 
9606

>  <BAO Format ID>  (860) 
BAO_0000019

>  <Published Type>  (860) 
nan

>  <Published Relation>  (860) 
nan

>  <Published Value>  (860) 
nan

>  <Published Units>  (860) 
nan

>  <Canonical Smiles>  (860) 
CC(C)(C)c1ccc2nc([nH]c2c1)c3n[nH]c4ccccc34

>  <Data Validity Comment>  (860) 
nan

>  <Document Journal>  (860) 
nan

>  <Document Year>  (860) 
nan

>  <SRC ID>  (860) 
7

>  <UO Units>  (860) 
UO_0000065

>  <Potential Duplicate>  (860) 
False

>  <Class>  (860) 
1

$$$$

     RDKit          2D

 33 36  0  0  0  0  0  0  0  0999 V2000
    1.3299    5.6152    0.0000 C   0  0  0  0  0  0  0  0  0  0  0  0
   -0.0967    5.1517    0.0000 O   0  0  0  0  0  0  0  0  0  0  0  0
   -0.4086    3.6844    0.0000 C   0  0  0  0  0  0  0  0  0  0  0  0
    0.7062    2.6807    0.0000 C   0  0  0  0  0  0  0  0  0  0  0  0
    0.3943    1.2135    0.0000 C   0  0  0  0  0  0  0  0  0  0  0  0
    1.2760    0.0000    0.0000 N   0  0  0  0  0  0  0  0  0  0  0  0
    0.3943   -1.2135    0.0000 C   0  0  0  0  0  0  0  0  0  0  0  0
   -1.0323   -0.7500    0.0000 N   0  0  0  0  0  0  0  0  0  0  0  0
   -2.2458   -1.6317    0.0000 C   0  0  0  0  0  0  0  0  0  0  0  0
   -2.2458   -3.1317    0.0000 C   0  0  0  0  0  0  0  0  0  0  0  0
   -3.6724   -3.5952    0.0000 C   0  0  0  0  0  0  0  0  0  0  0  0
   -4.1359   -5.0218    0.0000 O   0  0  0  0  0  0  0  0  0  0  0  0
   -5.6031   -5.3337    0.0000 C   0  0  0  0  0  0  0  0  0  0  0  0
   -6.0667   -6.7602    0.0000 C   0  0  0  0  0  0  0  0  0  0  0  0
   -7.5339   -7.0721    0.0000 C   0  0  0  0  0  0  0  0  0  0  0  0
   -7.9974   -8.4987    0.0000 C   0  0  0  0  0  0  0  0  0  0  0  0
   -6.9937   -9.6134    0.0000 C   0  0  0  0  0  0  0  0  0  0  0  0
   -5.5265   -9.3015    0.0000 C   0  0  0  0  0  0  0  0  0  0  0  0
   -5.0630   -7.8750    0.0000 C   0  0  0  0  0  0  0  0  0  0  0  0
   -3.5958   -7.5631    0.0000 C   0  0  0  0  0  0  0  0  0  0  0  0
   -2.1285   -7.2512    0.0000 F   0  0  0  0  0  0  0  0  0  0  0  0
   -3.2839   -9.0303    0.0000 F   0  0  0  0  0  0  0  0  0  0  0  0
   -3.9076   -6.0959    0.0000 F   0  0  0  0  0  0  0  0  0  0  0  0
   -4.5541   -2.3817    0.0000 C   0  0  0  0  0  0  0  0  0  0  0  0
   -3.6724   -1.1682    0.0000 S   0  0  0  0  0  0  0  0  0  0  0  0
   -6.0541   -2.3817    0.0000 C   0  0  0  0  0  0  0  0  0  0  0  0
   -6.8041   -3.6807    0.0000 O   0  0  0  0  0  0  0  0  0  0  0  0
   -6.8041   -1.0826    0.0000 N   0  0  0  0  0  0  0  0  0  0  0  0
   -1.0323    0.7500    0.0000 C   0  0  0  0  0  0  0  0  0  0  0  0
   -2.1470    1.7537    0.0000 C   0  0  0  0  0  0  0  0  0  0  0  0
   -1.8351    3.2209    0.0000 C   0  0  0  0  0  0  0  0  0  0  0  0
   -2.9499    4.2246    0.0000 O   0  0  0  0  0  0  0  0  0  0  0  0
   -4.3764    3.7611    0.0000 C   0  0  0  0  0  0  0  0  0  0  0  0
  1  2  1  0
  2  3  1  0
  3  4  2  0
  4  5  1  0
  5  6  1  0
  6  7  2  0
  7  8  1  0
  8  9  1  0
  9 10  2  0
 10 11  1  0
 11 12  1  0
 12 13  1  0
 13 14  1  0
 14 15  2  0
 15 16  1  0
 16 17  2  0
 17 18  1  0
 18 19  2  0
 19 20  1  0
 20 21  1  0
 20 22  1  0
 20 23  1  0
 11 24  2  0
 24 25  1  0
 24 26  1  0
 26 27  2  0
 26 28  1  0
  8 29  1  0
 29 30  1  0
 30 31  2  0
 31 32  1  0
 32 33  1  0
 31  3  1  0
 29  5  2  0
 25  9  1  0
 19 14  1  0
M  END
>  <Molecule>  (861) 
CHEMBL514499

>  <Standard Type>  (861) 
Ki

>  <Standard Relation>  (861) 
=

>  <Standard Value>  (861) 
199.53

>  <Standard Units>  (861) 
nM

>  <pChEMBL Value>  (861) 
6.7

>  <Comment>  (861) 
active

>  <Compound Key>  (861) 
SID103905429

>  <Assay>  (861) 
CHEMBL1963742

>  <Assay Description>  (861) 
PUBCHEM_BIOASSAY: Navigating the Kinome. (Class of assay: other) Panel member name: JAK3

>  <BAO Format>  (861) 
assay format

>  <Target>  (861) 
CHEMBL2148

>  <Target Pref. Name>  (861) 
Tyrosine-protein kinase JAK3

>  <Target Organism>  (861) 
Homo sapiens

>  <Target Type>  (861) 
SINGLE PROTEIN

>  <Document>  (861) 
CHEMBL1201862

>  <Source>  (861) 
PubChem BioAssays

>  <Max Phase>  (861) 
0

>  <#Ro5 Violations>  (861) 
0

>  <Molecular Weight>  (861) 
477.46

>  <Ligand Efficiency BEI>  (861) 
nan

>  <Ligand Efficiency LE>  (861) 
nan

>  <Ligand Efficiency LLE>  (861) 
nan

>  <Ligand Efficiency SEI>  (861) 
nan

>  <ALogP>  (861) 
4.8

>  <Assay Organism>  (861) 
nan

>  <Assay Tissue ChEMBL ID>  (861) 
nan

>  <Assay Tissue Name>  (861) 
nan

>  <Assay Cell Type>  (861) 
nan

>  <Assay Subcellular Fraction>  (861) 
nan

>  <Organism Tax ID>  (861) 
9606

>  <BAO Format ID>  (861) 
BAO_0000019

>  <Published Type>  (861) 
nan

>  <Published Relation>  (861) 
nan

>  <Published Value>  (861) 
nan

>  <Published Units>  (861) 
nan

>  <Canonical Smiles>  (861) 
COc1cc2ncn(c3cc(OCc4ccccc4C(F)(F)F)c(s3)C(=O)N)c2cc1OC

>  <Data Validity Comment>  (861) 
nan

>  <Document Journal>  (861) 
nan

>  <Document Year>  (861) 
nan

>  <SRC ID>  (861) 
7

>  <UO Units>  (861) 
UO_0000065

>  <Potential Duplicate>  (861) 
False

>  <Class>  (861) 
1

$$$$

     RDKit          2D

 29 33  0  0  0  0  0  0  0  0999 V2000
    3.0000    0.0000    0.0000 Cl  0  0  0  0  0  0  0  0  0  0  0  0
    1.5000    0.0000    0.0000 C   0  0  0  0  0  0  0  0  0  0  0  0
    0.7500   -1.2990    0.0000 C   0  0  0  0  0  0  0  0  0  0  0  0
   -0.7500   -1.2990    0.0000 C   0  0  0  0  0  0  0  0  0  0  0  0
   -1.5000    0.0000    0.0000 C   0  0  0  0  0  0  0  0  0  0  0  0
   -3.0000    0.0000    0.0000 N   0  0  0  0  0  0  0  0  0  0  0  0
   -3.7500    1.2990    0.0000 C   0  0  0  0  0  0  0  0  0  0  0  0
   -5.2500    1.2990    0.0000 O   0  0  0  0  0  0  0  0  0  0  0  0
   -3.0000    2.5981    0.0000 C   0  0  0  0  0  0  0  0  0  0  0  0
   -1.5000    2.5981    0.0000 C   0  0  0  0  0  0  0  0  0  0  0  0
   -0.7500    3.8971    0.0000 C   0  0  0  0  0  0  0  0  0  0  0  0
    0.7500    3.8971    0.0000 C   0  0  0  0  0  0  0  0  0  0  0  0
    1.5000    5.1962    0.0000 C   0  0  0  0  0  0  0  0  0  0  0  0
    0.7500    6.4952    0.0000 C   0  0  0  0  0  0  0  0  0  0  0  0
   -0.7500    6.4952    0.0000 C   0  0  0  0  0  0  0  0  0  0  0  0
   -1.5000    5.1962    0.0000 C   0  0  0  0  0  0  0  0  0  0  0  0
   -0.7500    1.2990    0.0000 C   0  0  0  0  0  0  0  0  0  0  0  0
    0.7500    1.2990    0.0000 C   0  0  0  0  0  0  0  0  0  0  0  0
   -3.7500    3.8971    0.0000 C   0  0  0  0  0  0  0  0  0  0  0  0
   -5.2418    4.0539    0.0000 N   0  0  0  0  0  0  0  0  0  0  0  0
   -5.5537    5.5211    0.0000 N   0  0  0  0  0  0  0  0  0  0  0  0
   -4.2546    6.2711    0.0000 C   0  0  0  0  0  0  0  0  0  0  0  0
   -3.1399    5.2674    0.0000 C   0  0  0  0  0  0  0  0  0  0  0  0
   -4.0978    7.7629    0.0000 C   0  0  0  0  0  0  0  0  0  0  0  0
   -2.7275    8.3730    0.0000 C   0  0  0  0  0  0  0  0  0  0  0  0
   -2.5707    9.8648    0.0000 C   0  0  0  0  0  0  0  0  0  0  0  0
   -3.7842   10.7465    0.0000 C   0  0  0  0  0  0  0  0  0  0  0  0
   -5.1546   10.1364    0.0000 C   0  0  0  0  0  0  0  0  0  0  0  0
   -5.3113    8.6446    0.0000 C   0  0  0  0  0  0  0  0  0  0  0  0
  1  2  1  0
  2  3  2  0
  3  4  1  0
  4  5  2  0
  5  6  1  0
  6  7  1  0
  7  8  2  0
  7  9  1  0
  9 10  2  0
 10 11  1  0
 11 12  2  0
 12 13  1  0
 13 14  2  0
 14 15  1  0
 15 16  2  0
 10 17  1  0
 17 18  2  0
  9 19  1  0
 19 20  2  0
 20 21  1  0
 21 22  1  0
 22 23  1  0
 22 24  1  0
 24 25  2  0
 25 26  1  0
 26 27  2  0
 27 28  1  0
 28 29  2  0
 18  2  1  0
 17  5  1  0
 16 11  1  0
 23 19  1  0
 29 24  1  0
M  END
>  <Molecule>  (862) 
CHEMBL1992796

>  <Standard Type>  (862) 
Ki

>  <Standard Relation>  (862) 
>

>  <Standard Value>  (862) 
1584.89

>  <Standard Units>  (862) 
nM

>  <pChEMBL Value>  (862) 
nan

>  <Comment>  (862) 
inactive

>  <Compound Key>  (862) 
SID103905482

>  <Assay>  (862) 
CHEMBL1963742

>  <Assay Description>  (862) 
PUBCHEM_BIOASSAY: Navigating the Kinome. (Class of assay: other) Panel member name: JAK3

>  <BAO Format>  (862) 
assay format

>  <Target>  (862) 
CHEMBL2148

>  <Target Pref. Name>  (862) 
Tyrosine-protein kinase JAK3

>  <Target Organism>  (862) 
Homo sapiens

>  <Target Type>  (862) 
SINGLE PROTEIN

>  <Document>  (862) 
CHEMBL1201862

>  <Source>  (862) 
PubChem BioAssays

>  <Max Phase>  (862) 
0

>  <#Ro5 Violations>  (862) 
1

>  <Molecular Weight>  (862) 
399.88

>  <Ligand Efficiency BEI>  (862) 
nan

>  <Ligand Efficiency LE>  (862) 
nan

>  <Ligand Efficiency LLE>  (862) 
nan

>  <Ligand Efficiency SEI>  (862) 
nan

>  <ALogP>  (862) 
5.29

>  <Assay Organism>  (862) 
nan

>  <Assay Tissue ChEMBL ID>  (862) 
nan

>  <Assay Tissue Name>  (862) 
nan

>  <Assay Cell Type>  (862) 
nan

>  <Assay Subcellular Fraction>  (862) 
nan

>  <Organism Tax ID>  (862) 
9606

>  <BAO Format ID>  (862) 
BAO_0000019

>  <Published Type>  (862) 
nan

>  <Published Relation>  (862) 
nan

>  <Published Value>  (862) 
nan

>  <Published Units>  (862) 
nan

>  <Canonical Smiles>  (862) 
Clc1ccc2NC(=O)C(=C(c3ccccc3)c2c1)C4=NNC(C4)c5ccccc5

>  <Data Validity Comment>  (862) 
nan

>  <Document Journal>  (862) 
nan

>  <Document Year>  (862) 
nan

>  <SRC ID>  (862) 
7

>  <UO Units>  (862) 
UO_0000065

>  <Potential Duplicate>  (862) 
False

>  <Class>  (862) 
0

$$$$

     RDKit          2D

 41 44  0  0  0  0  0  0  0  0999 V2000
    9.7500   -3.8971    0.0000 C   0  0  0  0  0  0  0  0  0  0  0  0
    8.2500   -3.8971    0.0000 C   0  0  0  0  0  0  0  0  0  0  0  0
    7.5000   -2.5981    0.0000 N   0  0  0  0  0  0  0  0  0  0  0  0
    6.0000   -2.5981    0.0000 C   0  0  0  0  0  0  0  0  0  0  0  0
    5.2500   -1.2990    0.0000 C   0  0  0  0  0  0  0  0  0  0  0  0
    3.7500   -1.2990    0.0000 C   0  0  0  0  0  0  0  0  0  0  0  0
    3.0000    0.0000    0.0000 O   0  0  0  0  0  0  0  0  0  0  0  0
    1.5000    0.0000    0.0000 C   0  0  0  0  0  0  0  0  0  0  0  0
    0.7500   -1.2990    0.0000 C   0  0  0  0  0  0  0  0  0  0  0  0
   -0.7500   -1.2990    0.0000 C   0  0  0  0  0  0  0  0  0  0  0  0
   -1.5000    0.0000    0.0000 C   0  0  0  0  0  0  0  0  0  0  0  0
   -3.0000    0.0000    0.0000 C   0  0  0  0  0  0  0  0  0  0  0  0
   -3.7500   -1.2990    0.0000 N   0  0  0  0  0  0  0  0  0  0  0  0
   -5.2500   -1.2990    0.0000 C   0  0  0  0  0  0  0  0  0  0  0  0
   -6.1317   -2.5126    0.0000 C   0  0  0  0  0  0  0  0  0  0  0  0
   -7.5583   -2.0490    0.0000 C   0  0  0  0  0  0  0  0  0  0  0  0
   -8.7718   -2.9307    0.0000 C   0  0  0  0  0  0  0  0  0  0  0  0
  -10.1421   -2.3206    0.0000 C   0  0  0  0  0  0  0  0  0  0  0  0
  -10.2989   -0.8288    0.0000 O   0  0  0  0  0  0  0  0  0  0  0  0
  -11.3556   -3.2023    0.0000 N   0  0  0  0  0  0  0  0  0  0  0  0
  -12.7260   -2.5922    0.0000 C   0  0  0  0  0  0  0  0  0  0  0  0
  -12.8827   -1.1004    0.0000 C   0  0  0  0  0  0  0  0  0  0  0  0
  -14.2531   -0.4903    0.0000 C   0  0  0  0  0  0  0  0  0  0  0  0
  -15.4666   -1.3720    0.0000 C   0  0  0  0  0  0  0  0  0  0  0  0
  -15.3098   -2.8638    0.0000 C   0  0  0  0  0  0  0  0  0  0  0  0
  -16.5233   -3.7454    0.0000 F   0  0  0  0  0  0  0  0  0  0  0  0
  -13.9395   -3.4739    0.0000 C   0  0  0  0  0  0  0  0  0  0  0  0
   -7.5583   -0.5490    0.0000 N   0  0  0  0  0  0  0  0  0  0  0  0
   -6.1317   -0.0855    0.0000 N   0  0  0  0  0  0  0  0  0  0  0  0
   -3.7500    1.2990    0.0000 N   0  0  0  0  0  0  0  0  0  0  0  0
   -3.0000    2.5981    0.0000 C   0  0  0  0  0  0  0  0  0  0  0  0
   -1.5000    2.5981    0.0000 N   0  0  0  0  0  0  0  0  0  0  0  0
   -0.7500    1.2990    0.0000 C   0  0  0  0  0  0  0  0  0  0  0  0
    0.7500    1.2990    0.0000 C   0  0  0  0  0  0  0  0  0  0  0  0
    8.2500   -1.2990    0.0000 C   0  0  0  0  0  0  0  0  0  0  0  0
    9.7500   -1.2990    0.0000 C   0  0  0  0  0  0  0  0  0  0  0  0
   10.5000    0.0000    0.0000 O   0  0  0  0  0  0  0  0  0  0  0  0
   12.0000    0.0000    0.0000 P   0  0  0  0  0  0  0  0  0  0  0  0
   12.0000    1.5000    0.0000 O   0  0  0  0  0  0  0  0  0  0  0  0
   12.0000   -1.5000    0.0000 O   0  0  0  0  0  0  0  0  0  0  0  0
   13.5000    0.0000    0.0000 O   0  0  0  0  0  0  0  0  0  0  0  0
  1  2  1  0
  2  3  1  0
  3  4  1  0
  4  5  1  0
  5  6  1  0
  6  7  1  0
  7  8  1  0
  8  9  2  0
  9 10  1  0
 10 11  2  0
 11 12  1  0
 12 13  1  0
 13 14  1  0
 14 15  1  0
 15 16  2  0
 16 17  1  0
 17 18  1  0
 18 19  2  0
 18 20  1  0
 20 21  1  0
 21 22  2  0
 22 23  1  0
 23 24  2  0
 24 25  1  0
 25 26  1  0
 25 27  2  0
 16 28  1  0
 28 29  1  0
 12 30  2  0
 30 31  1  0
 31 32  2  0
 32 33  1  0
 33 34  2  0
  3 35  1  0
 35 36  1  0
 36 37  1  0
 37 38  1  0
 38 39  2  0
 38 40  1  0
 38 41  1  0
 34  8  1  0
 33 11  1  0
 29 14  2  0
 27 21  1  0
M  END
>  <Molecule>  (863) 
CHEMBL415049

>  <Standard Type>  (863) 
Ki

>  <Standard Relation>  (863) 
>

>  <Standard Value>  (863) 
5011.87

>  <Standard Units>  (863) 
nM

>  <pChEMBL Value>  (863) 
nan

>  <Comment>  (863) 
inactive

>  <Compound Key>  (863) 
SID103905346

>  <Assay>  (863) 
CHEMBL1963742

>  <Assay Description>  (863) 
PUBCHEM_BIOASSAY: Navigating the Kinome. (Class of assay: other) Panel member name: JAK3

>  <BAO Format>  (863) 
assay format

>  <Target>  (863) 
CHEMBL2148

>  <Target Pref. Name>  (863) 
Tyrosine-protein kinase JAK3

>  <Target Organism>  (863) 
Homo sapiens

>  <Target Type>  (863) 
SINGLE PROTEIN

>  <Document>  (863) 
CHEMBL1201862

>  <Source>  (863) 
PubChem BioAssays

>  <Max Phase>  (863) 
3

>  <#Ro5 Violations>  (863) 
1

>  <Molecular Weight>  (863) 
587.55

>  <Ligand Efficiency BEI>  (863) 
nan

>  <Ligand Efficiency LE>  (863) 
nan

>  <Ligand Efficiency LLE>  (863) 
nan

>  <Ligand Efficiency SEI>  (863) 
nan

>  <ALogP>  (863) 
3.62

>  <Assay Organism>  (863) 
nan

>  <Assay Tissue ChEMBL ID>  (863) 
nan

>  <Assay Tissue Name>  (863) 
nan

>  <Assay Cell Type>  (863) 
nan

>  <Assay Subcellular Fraction>  (863) 
nan

>  <Organism Tax ID>  (863) 
9606

>  <BAO Format ID>  (863) 
BAO_0000019

>  <Published Type>  (863) 
nan

>  <Published Relation>  (863) 
nan

>  <Published Value>  (863) 
nan

>  <Published Units>  (863) 
nan

>  <Canonical Smiles>  (863) 
CCN(CCCOc1ccc2c(Nc3cc(CC(=O)Nc4cccc(F)c4)[nH]n3)ncnc2c1)CCOP(=O)(O)O

>  <Data Validity Comment>  (863) 
nan

>  <Document Journal>  (863) 
nan

>  <Document Year>  (863) 
nan

>  <SRC ID>  (863) 
7

>  <UO Units>  (863) 
UO_0000065

>  <Potential Duplicate>  (863) 
False

>  <Class>  (863) 
0

$$$$

     RDKit          2D

 20 21  0  0  0  0  0  0  0  0999 V2000
    9.0000   -2.5981    0.0000 C   0  0  0  0  0  0  0  0  0  0  0  0
    8.2500   -1.2990    0.0000 C   0  0  0  0  0  0  0  0  0  0  0  0
    6.7500   -1.2990    0.0000 C   0  0  0  0  0  0  0  0  0  0  0  0
    6.0000    0.0000    0.0000 C   0  0  0  0  0  0  0  0  0  0  0  0
    4.5000    0.0000    0.0000 C   0  0  0  0  0  0  0  0  0  0  0  0
    3.0000    0.0000    0.0000 C   0  0  0  0  0  0  0  0  0  0  0  0
    1.5000    0.0000    0.0000 C   0  0  0  0  0  0  0  0  0  0  0  0
    0.7500   -1.2990    0.0000 C   0  0  0  0  0  0  0  0  0  0  0  0
   -0.7500   -1.2990    0.0000 C   0  0  0  0  0  0  0  0  0  0  0  0
   -1.5000    0.0000    0.0000 C   0  0  0  0  0  0  0  0  0  0  0  0
   -3.0000    0.0000    0.0000 C   0  0  0  0  0  0  0  0  0  0  0  0
   -3.7500    1.2990    0.0000 N   0  0  0  0  0  0  0  0  0  0  0  0
   -3.3618    2.7479    0.0000 C   0  0  0  0  0  0  0  0  0  0  0  0
   -4.8107    3.1362    0.0000 C   0  0  0  0  0  0  0  0  0  0  0  0
   -5.1989    1.6873    0.0000 C   0  0  0  0  0  0  0  0  0  0  0  0
   -5.5607    4.4352    0.0000 C   0  0  0  0  0  0  0  0  0  0  0  0
   -7.0607    4.4352    0.0000 O   0  0  0  0  0  0  0  0  0  0  0  0
   -4.8107    5.7342    0.0000 O   0  0  0  0  0  0  0  0  0  0  0  0
   -0.7500    1.2990    0.0000 C   0  0  0  0  0  0  0  0  0  0  0  0
    0.7500    1.2990    0.0000 C   0  0  0  0  0  0  0  0  0  0  0  0
  1  2  1  0
  2  3  1  0
  3  4  1  0
  4  5  1  0
  5  6  3  0
  6  7  1  0
  7  8  2  0
  8  9  1  0
  9 10  2  0
 10 11  1  0
 11 12  1  0
 12 13  1  0
 13 14  1  0
 14 15  1  0
 14 16  1  0
 16 17  2  0
 16 18  1  0
 10 19  1  0
 19 20  2  0
 20  7  1  0
 15 12  1  0
M  END
>  <Molecule>  (864) 
CHEMBL1972462

>  <Standard Type>  (864) 
Ki

>  <Standard Relation>  (864) 
>

>  <Standard Value>  (864) 
5011.87

>  <Standard Units>  (864) 
nM

>  <pChEMBL Value>  (864) 
nan

>  <Comment>  (864) 
inactive

>  <Compound Key>  (864) 
SID103904681

>  <Assay>  (864) 
CHEMBL1963742

>  <Assay Description>  (864) 
PUBCHEM_BIOASSAY: Navigating the Kinome. (Class of assay: other) Panel member name: JAK3

>  <BAO Format>  (864) 
assay format

>  <Target>  (864) 
CHEMBL2148

>  <Target Pref. Name>  (864) 
Tyrosine-protein kinase JAK3

>  <Target Organism>  (864) 
Homo sapiens

>  <Target Type>  (864) 
SINGLE PROTEIN

>  <Document>  (864) 
CHEMBL1201862

>  <Source>  (864) 
PubChem BioAssays

>  <Max Phase>  (864) 
0

>  <#Ro5 Violations>  (864) 
0

>  <Molecular Weight>  (864) 
271.36

>  <Ligand Efficiency BEI>  (864) 
nan

>  <Ligand Efficiency LE>  (864) 
nan

>  <Ligand Efficiency LLE>  (864) 
nan

>  <Ligand Efficiency SEI>  (864) 
nan

>  <ALogP>  (864) 
2.74

>  <Assay Organism>  (864) 
nan

>  <Assay Tissue ChEMBL ID>  (864) 
nan

>  <Assay Tissue Name>  (864) 
nan

>  <Assay Cell Type>  (864) 
nan

>  <Assay Subcellular Fraction>  (864) 
nan

>  <Organism Tax ID>  (864) 
9606

>  <BAO Format ID>  (864) 
BAO_0000019

>  <Published Type>  (864) 
nan

>  <Published Relation>  (864) 
nan

>  <Published Value>  (864) 
nan

>  <Published Units>  (864) 
nan

>  <Canonical Smiles>  (864) 
CCCCC#Cc1ccc(CN2CC(C2)C(=O)O)cc1

>  <Data Validity Comment>  (864) 
nan

>  <Document Journal>  (864) 
nan

>  <Document Year>  (864) 
nan

>  <SRC ID>  (864) 
7

>  <UO Units>  (864) 
UO_0000065

>  <Potential Duplicate>  (864) 
False

>  <Class>  (864) 
0

$$$$

     RDKit          2D

 24 27  0  0  0  0  0  0  0  0999 V2000
   -5.0487    4.2236    0.0000 O   0  0  0  0  0  0  0  0  0  0  0  0
   -5.3605    2.7564    0.0000 C   0  0  0  0  0  0  0  0  0  0  0  0
   -4.2458    1.7527    0.0000 C   0  0  0  0  0  0  0  0  0  0  0  0
   -4.5577    0.2855    0.0000 C   0  0  0  0  0  0  0  0  0  0  0  0
   -5.9843   -0.1781    0.0000 C   0  0  0  0  0  0  0  0  0  0  0  0
   -7.0990    0.8256    0.0000 C   0  0  0  0  0  0  0  0  0  0  0  0
   -6.7871    2.2929    0.0000 C   0  0  0  0  0  0  0  0  0  0  0  0
   -6.2961   -1.6453    0.0000 N   0  0  0  0  0  0  0  0  0  0  0  0
   -5.1814   -2.6490    0.0000 C   0  0  0  0  0  0  0  0  0  0  0  0
   -5.4933   -4.1162    0.0000 N   0  0  0  0  0  0  0  0  0  0  0  0
   -4.3786   -5.1199    0.0000 C   0  0  0  0  0  0  0  0  0  0  0  0
   -4.6904   -6.5871    0.0000 Cl  0  0  0  0  0  0  0  0  0  0  0  0
   -2.9520   -4.6564    0.0000 C   0  0  0  0  0  0  0  0  0  0  0  0
   -2.6401   -3.1891    0.0000 C   0  0  0  0  0  0  0  0  0  0  0  0
   -3.7548   -2.1855    0.0000 N   0  0  0  0  0  0  0  0  0  0  0  0
   -1.2135   -2.7256    0.0000 C   0  0  0  0  0  0  0  0  0  0  0  0
    0.0000   -3.6073    0.0000 C   0  0  0  0  0  0  0  0  0  0  0  0
    1.2135   -2.7256    0.0000 N   0  0  0  0  0  0  0  0  0  0  0  0
    0.7500   -1.2990    0.0000 C   0  0  0  0  0  0  0  0  0  0  0  0
    1.5000    0.0000    0.0000 N   0  0  0  0  0  0  0  0  0  0  0  0
    0.7500    1.2990    0.0000 C   0  0  0  0  0  0  0  0  0  0  0  0
   -0.7500    1.2990    0.0000 C   0  0  0  0  0  0  0  0  0  0  0  0
   -1.5000    0.0000    0.0000 C   0  0  0  0  0  0  0  0  0  0  0  0
   -0.7500   -1.2990    0.0000 C   0  0  0  0  0  0  0  0  0  0  0  0
  1  2  1  0
  2  3  1  0
  3  4  1  0
  4  5  1  0
  5  6  1  0
  6  7  1  0
  5  8  1  0
  8  9  1  0
  9 10  2  0
 10 11  1  0
 11 12  1  0
 11 13  2  0
 13 14  1  0
 14 15  2  0
 14 16  1  0
 16 17  2  0
 17 18  1  0
 18 19  1  0
 19 20  2  0
 20 21  1  0
 21 22  2  0
 22 23  1  0
 23 24  2  0
  7  2  1  0
 15  9  1  0
 24 16  1  0
 24 19  1  0
M  END
>  <Molecule>  (865) 
CHEMBL1986943

>  <Standard Type>  (865) 
Ki

>  <Standard Relation>  (865) 
=

>  <Standard Value>  (865) 
50.12

>  <Standard Units>  (865) 
nM

>  <pChEMBL Value>  (865) 
7.3

>  <Comment>  (865) 
active

>  <Compound Key>  (865) 
SID103904193

>  <Assay>  (865) 
CHEMBL1963742

>  <Assay Description>  (865) 
PUBCHEM_BIOASSAY: Navigating the Kinome. (Class of assay: other) Panel member name: JAK3

>  <BAO Format>  (865) 
assay format

>  <Target>  (865) 
CHEMBL2148

>  <Target Pref. Name>  (865) 
Tyrosine-protein kinase JAK3

>  <Target Organism>  (865) 
Homo sapiens

>  <Target Type>  (865) 
SINGLE PROTEIN

>  <Document>  (865) 
CHEMBL1201862

>  <Source>  (865) 
PubChem BioAssays

>  <Max Phase>  (865) 
0

>  <#Ro5 Violations>  (865) 
0

>  <Molecular Weight>  (865) 
343.82

>  <Ligand Efficiency BEI>  (865) 
nan

>  <Ligand Efficiency LE>  (865) 
nan

>  <Ligand Efficiency LLE>  (865) 
nan

>  <Ligand Efficiency SEI>  (865) 
nan

>  <ALogP>  (865) 
3.39

>  <Assay Organism>  (865) 
nan

>  <Assay Tissue ChEMBL ID>  (865) 
nan

>  <Assay Tissue Name>  (865) 
nan

>  <Assay Cell Type>  (865) 
nan

>  <Assay Subcellular Fraction>  (865) 
nan

>  <Organism Tax ID>  (865) 
9606

>  <BAO Format ID>  (865) 
BAO_0000019

>  <Published Type>  (865) 
nan

>  <Published Relation>  (865) 
nan

>  <Published Value>  (865) 
nan

>  <Published Units>  (865) 
nan

>  <Canonical Smiles>  (865) 
OC1CCC(CC1)Nc2nc(Cl)cc(n2)c3c[nH]c4ncccc34

>  <Data Validity Comment>  (865) 
nan

>  <Document Journal>  (865) 
nan

>  <Document Year>  (865) 
nan

>  <SRC ID>  (865) 
7

>  <UO Units>  (865) 
UO_0000065

>  <Potential Duplicate>  (865) 
False

>  <Class>  (865) 
1

$$$$

     RDKit          2D

 29 33  0  0  0  0  0  0  0  0999 V2000
  -11.7443    7.2093    0.0000 N   0  0  0  0  0  0  0  0  0  0  0  0
  -11.1342    5.8390    0.0000 C   0  0  0  0  0  0  0  0  0  0  0  0
  -12.0159    4.6254    0.0000 O   0  0  0  0  0  0  0  0  0  0  0  0
   -9.6424    5.6822    0.0000 C   0  0  0  0  0  0  0  0  0  0  0  0
   -8.7607    6.8957    0.0000 C   0  0  0  0  0  0  0  0  0  0  0  0
   -7.2690    6.7389    0.0000 C   0  0  0  0  0  0  0  0  0  0  0  0
   -6.6589    5.3686    0.0000 C   0  0  0  0  0  0  0  0  0  0  0  0
   -7.5405    4.1551    0.0000 C   0  0  0  0  0  0  0  0  0  0  0  0
   -9.0323    4.3118    0.0000 C   0  0  0  0  0  0  0  0  0  0  0  0
   -5.1671    5.2118    0.0000 C   0  0  0  0  0  0  0  0  0  0  0  0
   -4.1634    6.3265    0.0000 N   0  0  0  0  0  0  0  0  0  0  0  0
   -2.7931    5.7164    0.0000 C   0  0  0  0  0  0  0  0  0  0  0  0
   -1.4940    6.4664    0.0000 C   0  0  0  0  0  0  0  0  0  0  0  0
   -0.1950    5.7164    0.0000 C   0  0  0  0  0  0  0  0  0  0  0  0
    1.1041    6.4664    0.0000 C   0  0  0  0  0  0  0  0  0  0  0  0
    1.1041    7.9664    0.0000 C   0  0  0  0  0  0  0  0  0  0  0  0
   -0.1950    8.7164    0.0000 C   0  0  0  0  0  0  0  0  0  0  0  0
   -1.4940    7.9664    0.0000 N   0  0  0  0  0  0  0  0  0  0  0  0
   -2.9499    4.2246    0.0000 C   0  0  0  0  0  0  0  0  0  0  0  0
   -4.4171    3.9127    0.0000 N   0  0  0  0  0  0  0  0  0  0  0  0
   -1.8351    3.2209    0.0000 C   0  0  0  0  0  0  0  0  0  0  0  0
   -0.4086    3.6844    0.0000 C   0  0  0  0  0  0  0  0  0  0  0  0
    0.7062    2.6807    0.0000 C   0  0  0  0  0  0  0  0  0  0  0  0
    0.3943    1.2135    0.0000 C   0  0  0  0  0  0  0  0  0  0  0  0
    1.2760    0.0000    0.0000 O   0  0  0  0  0  0  0  0  0  0  0  0
    0.3943   -1.2135    0.0000 C   0  0  0  0  0  0  0  0  0  0  0  0
   -1.0323   -0.7500    0.0000 O   0  0  0  0  0  0  0  0  0  0  0  0
   -1.0323    0.7500    0.0000 C   0  0  0  0  0  0  0  0  0  0  0  0
   -2.1470    1.7537    0.0000 C   0  0  0  0  0  0  0  0  0  0  0  0
  1  2  1  0
  2  3  2  0
  2  4  1  0
  4  5  2  0
  5  6  1  0
  6  7  2  0
  7  8  1  0
  8  9  2  0
  7 10  1  0
 10 11  2  0
 11 12  1  0
 12 13  1  0
 13 14  2  0
 14 15  1  0
 15 16  2  0
 16 17  1  0
 17 18  2  0
 12 19  2  0
 19 20  1  0
 19 21  1  0
 21 22  2  0
 22 23  1  0
 23 24  2  0
 24 25  1  0
 25 26  1  0
 26 27  1  0
 27 28  1  0
 28 29  2  0
  9  4  1  0
 20 10  1  0
 18 13  1  0
 29 21  1  0
 28 24  1  0
M  END
>  <Molecule>  (866) 
CHEMBL440084

>  <Standard Type>  (866) 
Ki

>  <Standard Relation>  (866) 
>

>  <Standard Value>  (866) 
5011.87

>  <Standard Units>  (866) 
nM

>  <pChEMBL Value>  (866) 
nan

>  <Comment>  (866) 
inactive

>  <Compound Key>  (866) 
SID103905411

>  <Assay>  (866) 
CHEMBL1963742

>  <Assay Description>  (866) 
PUBCHEM_BIOASSAY: Navigating the Kinome. (Class of assay: other) Panel member name: JAK3

>  <BAO Format>  (866) 
assay format

>  <Target>  (866) 
CHEMBL2148

>  <Target Pref. Name>  (866) 
Tyrosine-protein kinase JAK3

>  <Target Organism>  (866) 
Homo sapiens

>  <Target Type>  (866) 
SINGLE PROTEIN

>  <Document>  (866) 
CHEMBL1201862

>  <Source>  (866) 
PubChem BioAssays

>  <Max Phase>  (866) 
0

>  <#Ro5 Violations>  (866) 
0

>  <Molecular Weight>  (866) 
384.4

>  <Ligand Efficiency BEI>  (866) 
nan

>  <Ligand Efficiency LE>  (866) 
nan

>  <Ligand Efficiency LLE>  (866) 
nan

>  <Ligand Efficiency SEI>  (866) 
nan

>  <ALogP>  (866) 
3.63

>  <Assay Organism>  (866) 
nan

>  <Assay Tissue ChEMBL ID>  (866) 
nan

>  <Assay Tissue Name>  (866) 
nan

>  <Assay Cell Type>  (866) 
nan

>  <Assay Subcellular Fraction>  (866) 
nan

>  <Organism Tax ID>  (866) 
9606

>  <BAO Format ID>  (866) 
BAO_0000019

>  <Published Type>  (866) 
nan

>  <Published Relation>  (866) 
nan

>  <Published Value>  (866) 
nan

>  <Published Units>  (866) 
nan

>  <Canonical Smiles>  (866) 
NC(=O)c1ccc(cc1)c2nc(c3ccccn3)c([nH]2)c4ccc5OCOc5c4

>  <Data Validity Comment>  (866) 
nan

>  <Document Journal>  (866) 
nan

>  <Document Year>  (866) 
nan

>  <SRC ID>  (866) 
7

>  <UO Units>  (866) 
UO_0000065

>  <Potential Duplicate>  (866) 
False

>  <Class>  (866) 
0

$$$$

     RDKit          2D

 30 34  0  0  0  0  0  0  0  0999 V2000
   -8.6640    5.8606    0.0000 C   0  0  0  0  0  0  0  0  0  0  0  0
   -7.9140    4.5616    0.0000 C   0  0  0  0  0  0  0  0  0  0  0  0
   -6.4140    4.5616    0.0000 N   0  0  0  0  0  0  0  0  0  0  0  0
   -5.6640    3.2626    0.0000 C   0  0  0  0  0  0  0  0  0  0  0  0
   -6.4140    1.9635    0.0000 N   0  0  0  0  0  0  0  0  0  0  0  0
   -5.6640    0.6645    0.0000 C   0  0  0  0  0  0  0  0  0  0  0  0
   -4.1640    0.6645    0.0000 C   0  0  0  0  0  0  0  0  0  0  0  0
   -3.4140    1.9635    0.0000 C   0  0  0  0  0  0  0  0  0  0  0  0
   -4.1640    3.2626    0.0000 N   0  0  0  0  0  0  0  0  0  0  0  0
   -1.9140    1.9635    0.0000 C   0  0  0  0  0  0  0  0  0  0  0  0
   -1.0323    3.1771    0.0000 C   0  0  0  0  0  0  0  0  0  0  0  0
    0.3943    2.7135    0.0000 N   0  0  0  0  0  0  0  0  0  0  0  0
    0.3943    1.2135    0.0000 C   0  0  0  0  0  0  0  0  0  0  0  0
    1.2760    0.0000    0.0000 O   0  0  0  0  0  0  0  0  0  0  0  0
    0.3943   -1.2135    0.0000 C   0  0  0  0  0  0  0  0  0  0  0  0
   -1.0323   -0.7500    0.0000 C   0  0  0  0  0  0  0  0  0  0  0  0
   -1.0323    0.7500    0.0000 N   0  0  0  0  0  0  0  0  0  0  0  0
   -1.4958    4.6036    0.0000 C   0  0  0  0  0  0  0  0  0  0  0  0
   -0.4921    5.7184    0.0000 C   0  0  0  0  0  0  0  0  0  0  0  0
   -0.9556    7.1449    0.0000 C   0  0  0  0  0  0  0  0  0  0  0  0
   -2.4229    7.4568    0.0000 C   0  0  0  0  0  0  0  0  0  0  0  0
   -2.8864    8.8834    0.0000 F   0  0  0  0  0  0  0  0  0  0  0  0
   -3.4266    6.3421    0.0000 C   0  0  0  0  0  0  0  0  0  0  0  0
   -2.9630    4.9155    0.0000 C   0  0  0  0  0  0  0  0  0  0  0  0
   -8.6640    3.2626    0.0000 C   0  0  0  0  0  0  0  0  0  0  0  0
  -10.1640    3.2626    0.0000 C   0  0  0  0  0  0  0  0  0  0  0  0
  -10.9140    1.9635    0.0000 C   0  0  0  0  0  0  0  0  0  0  0  0
  -10.1640    0.6645    0.0000 C   0  0  0  0  0  0  0  0  0  0  0  0
   -8.6640    0.6645    0.0000 C   0  0  0  0  0  0  0  0  0  0  0  0
   -7.9140    1.9635    0.0000 C   0  0  0  0  0  0  0  0  0  0  0  0
  1  2  1  0
  2  3  1  0
  3  4  1  0
  4  5  2  0
  5  6  1  0
  6  7  2  0
  7  8  1  0
  8  9  2  0
  8 10  1  0
 10 11  2  0
 11 12  1  0
 12 13  2  0
 13 14  1  0
 14 15  1  0
 15 16  2  0
 16 17  1  0
 11 18  1  0
 18 19  2  0
 19 20  1  0
 20 21  2  0
 21 22  1  0
 21 23  1  0
 23 24  2  0
  2 25  1  0
 25 26  2  0
 26 27  1  0
 27 28  2  0
 28 29  1  0
 29 30  2  0
  9  4  1  0
 17 10  1  0
 17 13  1  0
 24 18  1  0
 30 25  1  0
M  END
>  <Molecule>  (867) 
CHEMBL1990288

>  <Standard Type>  (867) 
Ki

>  <Standard Relation>  (867) 
>

>  <Standard Value>  (867) 
1584.89

>  <Standard Units>  (867) 
nM

>  <pChEMBL Value>  (867) 
nan

>  <Comment>  (867) 
inactive

>  <Compound Key>  (867) 
SID103904410

>  <Assay>  (867) 
CHEMBL1963742

>  <Assay Description>  (867) 
PUBCHEM_BIOASSAY: Navigating the Kinome. (Class of assay: other) Panel member name: JAK3

>  <BAO Format>  (867) 
assay format

>  <Target>  (867) 
CHEMBL2148

>  <Target Pref. Name>  (867) 
Tyrosine-protein kinase JAK3

>  <Target Organism>  (867) 
Homo sapiens

>  <Target Type>  (867) 
SINGLE PROTEIN

>  <Document>  (867) 
CHEMBL1201862

>  <Source>  (867) 
PubChem BioAssays

>  <Max Phase>  (867) 
0

>  <#Ro5 Violations>  (867) 
1

>  <Molecular Weight>  (867) 
399.43

>  <Ligand Efficiency BEI>  (867) 
nan

>  <Ligand Efficiency LE>  (867) 
nan

>  <Ligand Efficiency LLE>  (867) 
nan

>  <Ligand Efficiency SEI>  (867) 
nan

>  <ALogP>  (867) 
5.36

>  <Assay Organism>  (867) 
nan

>  <Assay Tissue ChEMBL ID>  (867) 
nan

>  <Assay Tissue Name>  (867) 
nan

>  <Assay Cell Type>  (867) 
nan

>  <Assay Subcellular Fraction>  (867) 
nan

>  <Organism Tax ID>  (867) 
9606

>  <BAO Format ID>  (867) 
BAO_0000019

>  <Published Type>  (867) 
nan

>  <Published Relation>  (867) 
nan

>  <Published Value>  (867) 
nan

>  <Published Units>  (867) 
nan

>  <Canonical Smiles>  (867) 
CC(Nc1nccc(n1)c2c(nc3occn23)c4ccc(F)cc4)c5ccccc5

>  <Data Validity Comment>  (867) 
nan

>  <Document Journal>  (867) 
nan

>  <Document Year>  (867) 
nan

>  <SRC ID>  (867) 
7

>  <UO Units>  (867) 
UO_0000065

>  <Potential Duplicate>  (867) 
False

>  <Class>  (867) 
0

$$$$

     RDKit          2D

 30 33  0  0  0  0  0  0  0  0999 V2000
    3.7500   -1.2990    0.0000 C   0  0  0  0  0  0  0  0  0  0  0  0
    3.0000   -2.5981    0.0000 C   0  0  0  0  0  0  0  0  0  0  0  0
    1.5000   -2.5981    0.0000 O   0  0  0  0  0  0  0  0  0  0  0  0
    0.7500   -1.2990    0.0000 C   0  0  0  0  0  0  0  0  0  0  0  0
    1.5000    0.0000    0.0000 C   0  0  0  0  0  0  0  0  0  0  0  0
    0.7500    1.2990    0.0000 C   0  0  0  0  0  0  0  0  0  0  0  0
   -0.7500    1.2990    0.0000 C   0  0  0  0  0  0  0  0  0  0  0  0
   -1.5000    0.0000    0.0000 N   0  0  0  0  0  0  0  0  0  0  0  0
   -0.7500   -1.2990    0.0000 C   0  0  0  0  0  0  0  0  0  0  0  0
   -1.5000   -2.5981    0.0000 N   0  0  0  0  0  0  0  0  0  0  0  0
    1.5000    2.5981    0.0000 C   0  0  0  0  0  0  0  0  0  0  0  0
    0.8899    3.9684    0.0000 C   0  0  0  0  0  0  0  0  0  0  0  0
    2.0046    4.9721    0.0000 N   0  0  0  0  0  0  0  0  0  0  0  0
    3.3037    4.2221    0.0000 N   0  0  0  0  0  0  0  0  0  0  0  0
    2.9918    2.7549    0.0000 C   0  0  0  0  0  0  0  0  0  0  0  0
    4.6740    4.8322    0.0000 C   0  0  0  0  0  0  0  0  0  0  0  0
    5.8875    3.9505    0.0000 C   0  0  0  0  0  0  0  0  0  0  0  0
    7.2578    4.5606    0.0000 C   0  0  0  0  0  0  0  0  0  0  0  0
    7.4146    6.0524    0.0000 N   0  0  0  0  0  0  0  0  0  0  0  0
    6.2011    6.9341    0.0000 C   0  0  0  0  0  0  0  0  0  0  0  0
    4.8308    6.3240    0.0000 C   0  0  0  0  0  0  0  0  0  0  0  0
    3.7500   -3.8971    0.0000 C   0  0  0  0  0  0  0  0  0  0  0  0
    3.0000   -5.1962    0.0000 C   0  0  0  0  0  0  0  0  0  0  0  0
    1.5000   -5.1962    0.0000 Cl  0  0  0  0  0  0  0  0  0  0  0  0
    3.7500   -6.4952    0.0000 C   0  0  0  0  0  0  0  0  0  0  0  0
    5.2500   -6.4952    0.0000 C   0  0  0  0  0  0  0  0  0  0  0  0
    6.0000   -5.1962    0.0000 C   0  0  0  0  0  0  0  0  0  0  0  0
    7.5000   -5.1962    0.0000 F   0  0  0  0  0  0  0  0  0  0  0  0
    5.2500   -3.8971    0.0000 C   0  0  0  0  0  0  0  0  0  0  0  0
    6.0000   -2.5981    0.0000 Cl  0  0  0  0  0  0  0  0  0  0  0  0
  1  2  1  0
  2  3  1  0
  3  4  1  0
  4  5  2  0
  5  6  1  0
  6  7  2  0
  7  8  1  0
  8  9  2  0
  9 10  1  0
  6 11  1  0
 11 12  1  0
 12 13  2  0
 13 14  1  0
 14 15  1  0
 14 16  1  0
 16 17  1  0
 17 18  1  0
 18 19  1  0
 19 20  1  0
 20 21  1  0
  2 22  1  0
 22 23  2  0
 23 24  1  0
 23 25  1  0
 25 26  2  0
 26 27  1  0
 27 28  1  0
 27 29  2  0
 29 30  1  0
  9  4  1  0
 15 11  2  0
 21 16  1  0
 29 22  1  0
M  END
>  <Molecule>  (868) 
CHEMBL1825138

>  <Standard Type>  (868) 
Ki

>  <Standard Relation>  (868) 
=

>  <Standard Value>  (868) 
1995.26

>  <Standard Units>  (868) 
nM

>  <pChEMBL Value>  (868) 
5.7

>  <Comment>  (868) 
active

>  <Compound Key>  (868) 
SID103905245

>  <Assay>  (868) 
CHEMBL1963742

>  <Assay Description>  (868) 
PUBCHEM_BIOASSAY: Navigating the Kinome. (Class of assay: other) Panel member name: JAK3

>  <BAO Format>  (868) 
assay format

>  <Target>  (868) 
CHEMBL2148

>  <Target Pref. Name>  (868) 
Tyrosine-protein kinase JAK3

>  <Target Organism>  (868) 
Homo sapiens

>  <Target Type>  (868) 
SINGLE PROTEIN

>  <Document>  (868) 
CHEMBL1201862

>  <Source>  (868) 
PubChem BioAssays

>  <Max Phase>  (868) 
0

>  <#Ro5 Violations>  (868) 
1

>  <Molecular Weight>  (868) 
450.35

>  <Ligand Efficiency BEI>  (868) 
nan

>  <Ligand Efficiency LE>  (868) 
nan

>  <Ligand Efficiency LLE>  (868) 
nan

>  <Ligand Efficiency SEI>  (868) 
nan

>  <ALogP>  (868) 
5.04

>  <Assay Organism>  (868) 
nan

>  <Assay Tissue ChEMBL ID>  (868) 
nan

>  <Assay Tissue Name>  (868) 
nan

>  <Assay Cell Type>  (868) 
nan

>  <Assay Subcellular Fraction>  (868) 
nan

>  <Organism Tax ID>  (868) 
9606

>  <BAO Format ID>  (868) 
BAO_0000019

>  <Published Type>  (868) 
nan

>  <Published Relation>  (868) 
nan

>  <Published Value>  (868) 
nan

>  <Published Units>  (868) 
nan

>  <Canonical Smiles>  (868) 
CC(Oc1cc(cnc1N)c2cnn(c2)C3CCNCC3)c4c(Cl)ccc(F)c4Cl

>  <Data Validity Comment>  (868) 
nan

>  <Document Journal>  (868) 
nan

>  <Document Year>  (868) 
nan

>  <SRC ID>  (868) 
7

>  <UO Units>  (868) 
UO_0000065

>  <Potential Duplicate>  (868) 
False

>  <Class>  (868) 
1

$$$$

     RDKit          2D

 33 37  0  0  0  0  0  0  0  0999 V2000
    8.0182   -0.4070    0.0000 C   0  0  0  0  0  0  0  0  0  0  0  0
    8.3301    1.0602    0.0000 C   0  0  0  0  0  0  0  0  0  0  0  0
    7.2154    2.0639    0.0000 N   0  0  0  0  0  0  0  0  0  0  0  0
    5.7888    1.6004    0.0000 C   0  0  0  0  0  0  0  0  0  0  0  0
    4.6741    2.6041    0.0000 C   0  0  0  0  0  0  0  0  0  0  0  0
    4.9859    4.0713    0.0000 N   0  0  0  0  0  0  0  0  0  0  0  0
    6.4125    4.5348    0.0000 C   0  0  0  0  0  0  0  0  0  0  0  0
    7.5272    3.5312    0.0000 C   0  0  0  0  0  0  0  0  0  0  0  0
    3.8712    5.0750    0.0000 C   0  0  0  0  0  0  0  0  0  0  0  0
    4.1831    6.5422    0.0000 C   0  0  0  0  0  0  0  0  0  0  0  0
    3.0684    7.5459    0.0000 C   0  0  0  0  0  0  0  0  0  0  0  0
    1.6418    7.0824    0.0000 C   0  0  0  0  0  0  0  0  0  0  0  0
    0.5271    8.0861    0.0000 N   0  0  0  0  0  0  0  0  0  0  0  0
   -0.8995    7.6226    0.0000 C   0  0  0  0  0  0  0  0  0  0  0  0
   -2.0143    8.6263    0.0000 N   0  0  0  0  0  0  0  0  0  0  0  0
   -3.4408    8.1628    0.0000 C   0  0  0  0  0  0  0  0  0  0  0  0
   -3.7527    6.6955    0.0000 C   0  0  0  0  0  0  0  0  0  0  0  0
   -5.1793    6.2320    0.0000 C   0  0  0  0  0  0  0  0  0  0  0  0
   -6.6059    5.7685    0.0000 N   0  0  0  0  0  0  0  0  0  0  0  0
   -2.6380    5.6918    0.0000 C   0  0  0  0  0  0  0  0  0  0  0  0
   -2.9499    4.2246    0.0000 N   0  0  0  0  0  0  0  0  0  0  0  0
   -1.8351    3.2209    0.0000 C   0  0  0  0  0  0  0  0  0  0  0  0
   -0.4086    3.6844    0.0000 C   0  0  0  0  0  0  0  0  0  0  0  0
    0.7062    2.6807    0.0000 C   0  0  0  0  0  0  0  0  0  0  0  0
    0.3943    1.2135    0.0000 C   0  0  0  0  0  0  0  0  0  0  0  0
    1.2760    0.0000    0.0000 N   0  0  0  0  0  0  0  0  0  0  0  0
    0.3943   -1.2135    0.0000 N   0  0  0  0  0  0  0  0  0  0  0  0
   -1.0323   -0.7500    0.0000 C   0  0  0  0  0  0  0  0  0  0  0  0
   -1.0323    0.7500    0.0000 C   0  0  0  0  0  0  0  0  0  0  0  0
   -2.1470    1.7537    0.0000 C   0  0  0  0  0  0  0  0  0  0  0  0
   -1.2114    6.1554    0.0000 N   0  0  0  0  0  0  0  0  0  0  0  0
    1.3299    5.6152    0.0000 C   0  0  0  0  0  0  0  0  0  0  0  0
    2.4446    4.6115    0.0000 C   0  0  0  0  0  0  0  0  0  0  0  0
  1  2  1  0
  2  3  1  0
  3  4  1  0
  4  5  1  0
  5  6  1  0
  6  7  1  0
  7  8  1  0
  6  9  1  0
  9 10  2  0
 10 11  1  0
 11 12  2  0
 12 13  1  0
 13 14  1  0
 14 15  2  0
 15 16  1  0
 16 17  2  0
 17 18  1  0
 18 19  3  0
 17 20  1  0
 20 21  1  0
 21 22  1  0
 22 23  2  0
 23 24  1  0
 24 25  2  0
 25 26  1  0
 26 27  1  0
 27 28  2  0
 28 29  1  0
 29 30  2  0
 20 31  2  0
 12 32  1  0
 32 33  2  0
  8  3  1  0
 33  9  1  0
 31 14  1  0
 30 22  1  0
 29 25  1  0
M  END
>  <Molecule>  (869) 
CHEMBL1973516

>  <Standard Type>  (869) 
Ki

>  <Standard Relation>  (869) 
=

>  <Standard Value>  (869) 
2511.89

>  <Standard Units>  (869) 
nM

>  <pChEMBL Value>  (869) 
5.6

>  <Comment>  (869) 
active

>  <Compound Key>  (869) 
SID103905159

>  <Assay>  (869) 
CHEMBL1963742

>  <Assay Description>  (869) 
PUBCHEM_BIOASSAY: Navigating the Kinome. (Class of assay: other) Panel member name: JAK3

>  <BAO Format>  (869) 
assay format

>  <Target>  (869) 
CHEMBL2148

>  <Target Pref. Name>  (869) 
Tyrosine-protein kinase JAK3

>  <Target Organism>  (869) 
Homo sapiens

>  <Target Type>  (869) 
SINGLE PROTEIN

>  <Document>  (869) 
CHEMBL1201862

>  <Source>  (869) 
PubChem BioAssays

>  <Max Phase>  (869) 
0

>  <#Ro5 Violations>  (869) 
0

>  <Molecular Weight>  (869) 
439.53

>  <Ligand Efficiency BEI>  (869) 
nan

>  <Ligand Efficiency LE>  (869) 
nan

>  <Ligand Efficiency LLE>  (869) 
nan

>  <Ligand Efficiency SEI>  (869) 
nan

>  <ALogP>  (869) 
3.85

>  <Assay Organism>  (869) 
nan

>  <Assay Tissue ChEMBL ID>  (869) 
nan

>  <Assay Tissue Name>  (869) 
nan

>  <Assay Cell Type>  (869) 
nan

>  <Assay Subcellular Fraction>  (869) 
nan

>  <Organism Tax ID>  (869) 
9606

>  <BAO Format ID>  (869) 
BAO_0000019

>  <Published Type>  (869) 
nan

>  <Published Relation>  (869) 
nan

>  <Published Value>  (869) 
nan

>  <Published Units>  (869) 
nan

>  <Canonical Smiles>  (869) 
CCN1CCN(CC1)c2ccc(Nc3ncc(C#N)c(Nc4ccc5[nH]ncc5c4)n3)cc2

>  <Data Validity Comment>  (869) 
nan

>  <Document Journal>  (869) 
nan

>  <Document Year>  (869) 
nan

>  <SRC ID>  (869) 
7

>  <UO Units>  (869) 
UO_0000065

>  <Potential Duplicate>  (869) 
False

>  <Class>  (869) 
1

$$$$

     RDKit          2D

 39 43  0  0  0  0  0  0  0  0999 V2000
  -11.5066   -0.8941    0.0000 C   0  0  0  0  0  0  0  0  0  0  0  0
  -10.5029   -2.0088    0.0000 C   0  0  0  0  0  0  0  0  0  0  0  0
  -10.9664   -3.4354    0.0000 C   0  0  0  0  0  0  0  0  0  0  0  0
   -9.9627   -4.5501    0.0000 C   0  0  0  0  0  0  0  0  0  0  0  0
   -8.4955   -4.2382    0.0000 C   0  0  0  0  0  0  0  0  0  0  0  0
   -8.0320   -2.8116    0.0000 C   0  0  0  0  0  0  0  0  0  0  0  0
   -9.0356   -1.6969    0.0000 C   0  0  0  0  0  0  0  0  0  0  0  0
   -7.4918   -5.3529    0.0000 N   0  0  0  0  0  0  0  0  0  0  0  0
   -7.8037   -6.8202    0.0000 N   0  0  0  0  0  0  0  0  0  0  0  0
   -6.5046   -7.5702    0.0000 C   0  0  0  0  0  0  0  0  0  0  0  0
   -5.3899   -6.5665    0.0000 C   0  0  0  0  0  0  0  0  0  0  0  0
   -6.0000   -5.1962    0.0000 C   0  0  0  0  0  0  0  0  0  0  0  0
   -5.2500   -3.8971    0.0000 N   0  0  0  0  0  0  0  0  0  0  0  0
   -3.7500   -3.8971    0.0000 C   0  0  0  0  0  0  0  0  0  0  0  0
   -3.0000   -5.1962    0.0000 O   0  0  0  0  0  0  0  0  0  0  0  0
   -3.0000   -2.5981    0.0000 N   0  0  0  0  0  0  0  0  0  0  0  0
   -1.5000   -2.5981    0.0000 C   0  0  0  0  0  0  0  0  0  0  0  0
   -0.7500   -3.8971    0.0000 C   0  0  0  0  0  0  0  0  0  0  0  0
    0.7500   -3.8971    0.0000 C   0  0  0  0  0  0  0  0  0  0  0  0
    1.5000   -2.5981    0.0000 C   0  0  0  0  0  0  0  0  0  0  0  0
    3.0000   -2.5981    0.0000 O   0  0  0  0  0  0  0  0  0  0  0  0
    3.7500   -3.8971    0.0000 C   0  0  0  0  0  0  0  0  0  0  0  0
    5.2500   -3.8971    0.0000 C   0  0  0  0  0  0  0  0  0  0  0  0
    6.0000   -5.1962    0.0000 N   0  0  0  0  0  0  0  0  0  0  0  0
    5.2500   -6.4952    0.0000 C   0  0  0  0  0  0  0  0  0  0  0  0
    6.0000   -7.7942    0.0000 C   0  0  0  0  0  0  0  0  0  0  0  0
    7.5000   -7.7942    0.0000 O   0  0  0  0  0  0  0  0  0  0  0  0
    8.2500   -6.4952    0.0000 C   0  0  0  0  0  0  0  0  0  0  0  0
    7.5000   -5.1962    0.0000 C   0  0  0  0  0  0  0  0  0  0  0  0
    0.7500   -1.2990    0.0000 C   0  0  0  0  0  0  0  0  0  0  0  0
    1.5000    0.0000    0.0000 C   0  0  0  0  0  0  0  0  0  0  0  0
    0.7500    1.2990    0.0000 C   0  0  0  0  0  0  0  0  0  0  0  0
   -0.7500    1.2990    0.0000 C   0  0  0  0  0  0  0  0  0  0  0  0
   -1.5000    0.0000    0.0000 C   0  0  0  0  0  0  0  0  0  0  0  0
   -0.7500   -1.2990    0.0000 C   0  0  0  0  0  0  0  0  0  0  0  0
   -6.3478   -9.0619    0.0000 C   0  0  0  0  0  0  0  0  0  0  0  0
   -4.8560   -8.9052    0.0000 C   0  0  0  0  0  0  0  0  0  0  0  0
   -7.8396   -9.2187    0.0000 C   0  0  0  0  0  0  0  0  0  0  0  0
   -6.1910  -10.5537    0.0000 C   0  0  0  0  0  0  0  0  0  0  0  0
  1  2  1  0
  2  3  2  0
  3  4  1  0
  4  5  2  0
  5  6  1  0
  6  7  2  0
  5  8  1  0
  8  9  1  0
  9 10  2  0
 10 11  1  0
 11 12  2  0
 12 13  1  0
 13 14  1  0
 14 15  2  0
 14 16  1  0
 16 17  1  0
 17 18  2  0
 18 19  1  0
 19 20  2  0
 20 21  1  0
 21 22  1  0
 22 23  1  0
 23 24  1  0
 24 25  1  0
 25 26  1  0
 26 27  1  0
 27 28  1  0
 28 29  1  0
 20 30  1  0
 30 31  2  0
 31 32  1  0
 32 33  2  0
 33 34  1  0
 34 35  2  0
 10 36  1  0
 36 37  1  0
 36 38  1  0
 36 39  1  0
  7  2  1  0
 12  8  1  0
 35 17  1  0
 29 24  1  0
 35 30  1  0
M  END
>  <Molecule>  (870) 
CHEMBL103667

>  <Standard Type>  (870) 
Ki

>  <Standard Relation>  (870) 
>

>  <Standard Value>  (870) 
5011.87

>  <Standard Units>  (870) 
nM

>  <pChEMBL Value>  (870) 
nan

>  <Comment>  (870) 
inactive

>  <Compound Key>  (870) 
SID103904828

>  <Assay>  (870) 
CHEMBL1963742

>  <Assay Description>  (870) 
PUBCHEM_BIOASSAY: Navigating the Kinome. (Class of assay: other) Panel member name: JAK3

>  <BAO Format>  (870) 
assay format

>  <Target>  (870) 
CHEMBL2148

>  <Target Pref. Name>  (870) 
Tyrosine-protein kinase JAK3

>  <Target Organism>  (870) 
Homo sapiens

>  <Target Type>  (870) 
SINGLE PROTEIN

>  <Document>  (870) 
CHEMBL1201862

>  <Source>  (870) 
PubChem BioAssays

>  <Max Phase>  (870) 
2

>  <#Ro5 Violations>  (870) 
2

>  <Molecular Weight>  (870) 
527.67

>  <Ligand Efficiency BEI>  (870) 
nan

>  <Ligand Efficiency LE>  (870) 
nan

>  <Ligand Efficiency LLE>  (870) 
nan

>  <Ligand Efficiency SEI>  (870) 
nan

>  <ALogP>  (870) 
5.99

>  <Assay Organism>  (870) 
nan

>  <Assay Tissue ChEMBL ID>  (870) 
nan

>  <Assay Tissue Name>  (870) 
nan

>  <Assay Cell Type>  (870) 
nan

>  <Assay Subcellular Fraction>  (870) 
nan

>  <Organism Tax ID>  (870) 
9606

>  <BAO Format ID>  (870) 
BAO_0000019

>  <Published Type>  (870) 
nan

>  <Published Relation>  (870) 
nan

>  <Published Value>  (870) 
nan

>  <Published Units>  (870) 
nan

>  <Canonical Smiles>  (870) 
Cc1ccc(cc1)n2nc(cc2NC(=O)Nc3ccc(OCCN4CCOCC4)c5ccccc35)C(C)(C)C

>  <Data Validity Comment>  (870) 
nan

>  <Document Journal>  (870) 
nan

>  <Document Year>  (870) 
nan

>  <SRC ID>  (870) 
7

>  <UO Units>  (870) 
UO_0000065

>  <Potential Duplicate>  (870) 
False

>  <Class>  (870) 
0

$$$$

     RDKit          2D

 30 33  0  0  0  0  0  0  0  0999 V2000
   -5.2500   -3.8971    0.0000 C   0  0  0  0  0  0  0  0  0  0  0  0
   -3.7500   -3.8971    0.0000 O   0  0  0  0  0  0  0  0  0  0  0  0
   -3.0000   -2.5981    0.0000 C   0  0  0  0  0  0  0  0  0  0  0  0
   -1.5000   -2.5981    0.0000 C   0  0  0  0  0  0  0  0  0  0  0  0
   -0.7500   -1.2990    0.0000 C   0  0  0  0  0  0  0  0  0  0  0  0
    0.7500   -1.2990    0.0000 C   0  0  0  0  0  0  0  0  0  0  0  0
    1.5000   -2.5981    0.0000 N   0  0  0  0  0  0  0  0  0  0  0  0
    3.0000   -2.5981    0.0000 C   0  0  0  0  0  0  0  0  0  0  0  0
    3.7500   -3.8971    0.0000 C   0  0  0  0  0  0  0  0  0  0  0  0
    5.2500   -3.8971    0.0000 C   0  0  0  0  0  0  0  0  0  0  0  0
    6.0000   -2.5981    0.0000 C   0  0  0  0  0  0  0  0  0  0  0  0
    7.5000   -2.5981    0.0000 Br  0  0  0  0  0  0  0  0  0  0  0  0
    5.2500   -1.2990    0.0000 C   0  0  0  0  0  0  0  0  0  0  0  0
    3.7500   -1.2990    0.0000 C   0  0  0  0  0  0  0  0  0  0  0  0
    3.0000   -0.0000    0.0000 F   0  0  0  0  0  0  0  0  0  0  0  0
    1.5000    0.0000    0.0000 N   0  0  0  0  0  0  0  0  0  0  0  0
    0.7500    1.2990    0.0000 C   0  0  0  0  0  0  0  0  0  0  0  0
   -0.7500    1.2990    0.0000 N   0  0  0  0  0  0  0  0  0  0  0  0
   -1.5000    0.0000    0.0000 C   0  0  0  0  0  0  0  0  0  0  0  0
   -3.0000    0.0000    0.0000 C   0  0  0  0  0  0  0  0  0  0  0  0
   -3.7500   -1.2990    0.0000 C   0  0  0  0  0  0  0  0  0  0  0  0
   -5.2500   -1.2990    0.0000 O   0  0  0  0  0  0  0  0  0  0  0  0
   -6.0000    0.0000    0.0000 C   0  0  0  0  0  0  0  0  0  0  0  0
   -7.5000    0.0000    0.0000 C   0  0  0  0  0  0  0  0  0  0  0  0
   -8.2500    1.2990    0.0000 C   0  0  0  0  0  0  0  0  0  0  0  0
   -9.7500    1.2990    0.0000 C   0  0  0  0  0  0  0  0  0  0  0  0
  -10.5000    0.0000    0.0000 N   0  0  0  0  0  0  0  0  0  0  0  0
  -12.0000    0.0000    0.0000 C   0  0  0  0  0  0  0  0  0  0  0  0
   -9.7500   -1.2990    0.0000 C   0  0  0  0  0  0  0  0  0  0  0  0
   -8.2500   -1.2990    0.0000 C   0  0  0  0  0  0  0  0  0  0  0  0
  1  2  1  0
  2  3  1  0
  3  4  2  0
  4  5  1  0
  5  6  2  0
  6  7  1  0
  7  8  1  0
  8  9  2  0
  9 10  1  0
 10 11  2  0
 11 12  1  0
 11 13  1  0
 13 14  2  0
 14 15  1  0
  6 16  1  0
 16 17  2  0
 17 18  1  0
 18 19  2  0
 19 20  1  0
 20 21  2  0
 21 22  1  0
 22 23  1  0
 23 24  1  0
 24 25  1  0
 25 26  1  0
 26 27  1  0
 27 28  1  0
 27 29  1  0
 29 30  1  0
 21  3  1  0
 19  5  1  0
 14  8  1  0
 30 24  1  0
M  END
>  <Molecule>  (871) 
CHEMBL24828

>  <Standard Type>  (871) 
Ki

>  <Standard Relation>  (871) 
>

>  <Standard Value>  (871) 
5011.87

>  <Standard Units>  (871) 
nM

>  <pChEMBL Value>  (871) 
nan

>  <Comment>  (871) 
inactive

>  <Compound Key>  (871) 
SID103905338

>  <Assay>  (871) 
CHEMBL1963742

>  <Assay Description>  (871) 
PUBCHEM_BIOASSAY: Navigating the Kinome. (Class of assay: other) Panel member name: JAK3

>  <BAO Format>  (871) 
assay format

>  <Target>  (871) 
CHEMBL2148

>  <Target Pref. Name>  (871) 
Tyrosine-protein kinase JAK3

>  <Target Organism>  (871) 
Homo sapiens

>  <Target Type>  (871) 
SINGLE PROTEIN

>  <Document>  (871) 
CHEMBL1201862

>  <Source>  (871) 
PubChem BioAssays

>  <Max Phase>  (871) 
4

>  <#Ro5 Violations>  (871) 
1

>  <Molecular Weight>  (871) 
475.36

>  <Ligand Efficiency BEI>  (871) 
nan

>  <Ligand Efficiency LE>  (871) 
nan

>  <Ligand Efficiency LLE>  (871) 
nan

>  <Ligand Efficiency SEI>  (871) 
nan

>  <ALogP>  (871) 
5.0

>  <Assay Organism>  (871) 
nan

>  <Assay Tissue ChEMBL ID>  (871) 
nan

>  <Assay Tissue Name>  (871) 
nan

>  <Assay Cell Type>  (871) 
nan

>  <Assay Subcellular Fraction>  (871) 
nan

>  <Organism Tax ID>  (871) 
9606

>  <BAO Format ID>  (871) 
BAO_0000019

>  <Published Type>  (871) 
nan

>  <Published Relation>  (871) 
nan

>  <Published Value>  (871) 
nan

>  <Published Units>  (871) 
nan

>  <Canonical Smiles>  (871) 
COc1cc2c(Nc3ccc(Br)cc3F)ncnc2cc1OCC4CCN(C)CC4

>  <Data Validity Comment>  (871) 
nan

>  <Document Journal>  (871) 
nan

>  <Document Year>  (871) 
nan

>  <SRC ID>  (871) 
7

>  <UO Units>  (871) 
UO_0000065

>  <Potential Duplicate>  (871) 
False

>  <Class>  (871) 
0

$$$$

     RDKit          2D

 21 23  0  0  0  0  0  0  0  0999 V2000
   -6.9199   -4.5797    0.0000 C   0  0  0  0  0  0  0  0  0  0  0  0
   -5.4933   -4.1162    0.0000 C   0  0  0  0  0  0  0  0  0  0  0  0
   -5.1814   -2.6490    0.0000 C   0  0  0  0  0  0  0  0  0  0  0  0
   -3.7548   -2.1855    0.0000 C   0  0  0  0  0  0  0  0  0  0  0  0
   -2.6401   -3.1891    0.0000 C   0  0  0  0  0  0  0  0  0  0  0  0
   -2.9520   -4.6564    0.0000 C   0  0  0  0  0  0  0  0  0  0  0  0
   -4.3786   -5.1199    0.0000 C   0  0  0  0  0  0  0  0  0  0  0  0
   -1.2135   -2.7256    0.0000 C   0  0  0  0  0  0  0  0  0  0  0  0
    0.0000   -3.6073    0.0000 N   0  0  0  0  0  0  0  0  0  0  0  0
    1.2135   -2.7256    0.0000 N   0  0  0  0  0  0  0  0  0  0  0  0
    0.7500   -1.2990    0.0000 C   0  0  0  0  0  0  0  0  0  0  0  0
    1.5000    0.0000    0.0000 N   0  0  0  0  0  0  0  0  0  0  0  0
    0.7500    1.2990    0.0000 C   0  0  0  0  0  0  0  0  0  0  0  0
   -0.7500    1.2990    0.0000 N   0  0  0  0  0  0  0  0  0  0  0  0
   -1.5000    0.0000    0.0000 C   0  0  0  0  0  0  0  0  0  0  0  0
   -3.0000    0.0000    0.0000 N   0  0  0  0  0  0  0  0  0  0  0  0
   -0.7500   -1.2990    0.0000 C   0  0  0  0  0  0  0  0  0  0  0  0
    2.6401   -3.1891    0.0000 C   0  0  0  0  0  0  0  0  0  0  0  0
    2.1766   -4.6157    0.0000 C   0  0  0  0  0  0  0  0  0  0  0  0
    3.1036   -1.7626    0.0000 C   0  0  0  0  0  0  0  0  0  0  0  0
    4.0667   -3.6527    0.0000 C   0  0  0  0  0  0  0  0  0  0  0  0
  1  2  1  0
  2  3  2  0
  3  4  1  0
  4  5  2  0
  5  6  1  0
  6  7  2  0
  5  8  1  0
  8  9  2  0
  9 10  1  0
 10 11  1  0
 11 12  2  0
 12 13  1  0
 13 14  2  0
 14 15  1  0
 15 16  1  0
 15 17  2  0
 10 18  1  0
 18 19  1  0
 18 20  1  0
 18 21  1  0
  7  2  1  0
 17  8  1  0
 17 11  1  0
M  END
>  <Molecule>  (872) 
CHEMBL306380

>  <Standard Type>  (872) 
Ki

>  <Standard Relation>  (872) 
>

>  <Standard Value>  (872) 
1584.89

>  <Standard Units>  (872) 
nM

>  <pChEMBL Value>  (872) 
nan

>  <Comment>  (872) 
inactive

>  <Compound Key>  (872) 
SID103904783

>  <Assay>  (872) 
CHEMBL1963742

>  <Assay Description>  (872) 
PUBCHEM_BIOASSAY: Navigating the Kinome. (Class of assay: other) Panel member name: JAK3

>  <BAO Format>  (872) 
assay format

>  <Target>  (872) 
CHEMBL2148

>  <Target Pref. Name>  (872) 
Tyrosine-protein kinase JAK3

>  <Target Organism>  (872) 
Homo sapiens

>  <Target Type>  (872) 
SINGLE PROTEIN

>  <Document>  (872) 
CHEMBL1201862

>  <Source>  (872) 
PubChem BioAssays

>  <Max Phase>  (872) 
0

>  <#Ro5 Violations>  (872) 
0

>  <Molecular Weight>  (872) 
281.36

>  <Ligand Efficiency BEI>  (872) 
nan

>  <Ligand Efficiency LE>  (872) 
nan

>  <Ligand Efficiency LLE>  (872) 
nan

>  <Ligand Efficiency SEI>  (872) 
nan

>  <ALogP>  (872) 
3.14

>  <Assay Organism>  (872) 
nan

>  <Assay Tissue ChEMBL ID>  (872) 
nan

>  <Assay Tissue Name>  (872) 
nan

>  <Assay Cell Type>  (872) 
nan

>  <Assay Subcellular Fraction>  (872) 
nan

>  <Organism Tax ID>  (872) 
9606

>  <BAO Format ID>  (872) 
BAO_0000019

>  <Published Type>  (872) 
nan

>  <Published Relation>  (872) 
nan

>  <Published Value>  (872) 
nan

>  <Published Units>  (872) 
nan

>  <Canonical Smiles>  (872) 
Cc1ccc(cc1)c2nn(c3ncnc(N)c23)C(C)(C)C

>  <Data Validity Comment>  (872) 
nan

>  <Document Journal>  (872) 
nan

>  <Document Year>  (872) 
nan

>  <SRC ID>  (872) 
7

>  <UO Units>  (872) 
UO_0000065

>  <Potential Duplicate>  (872) 
False

>  <Class>  (872) 
0

$$$$

     RDKit          2D

 33 37  0  0  0  0  0  0  0  0999 V2000
   -5.2500   -3.8971    0.0000 C   0  0  0  0  0  0  0  0  0  0  0  0
   -3.7500   -3.8971    0.0000 O   0  0  0  0  0  0  0  0  0  0  0  0
   -3.0000   -2.5981    0.0000 C   0  0  0  0  0  0  0  0  0  0  0  0
   -1.5000   -2.5981    0.0000 C   0  0  0  0  0  0  0  0  0  0  0  0
   -0.7500   -1.2990    0.0000 C   0  0  0  0  0  0  0  0  0  0  0  0
    0.7500   -1.2990    0.0000 C   0  0  0  0  0  0  0  0  0  0  0  0
    1.5000   -2.5981    0.0000 O   0  0  0  0  0  0  0  0  0  0  0  0
    3.0000   -2.5981    0.0000 C   0  0  0  0  0  0  0  0  0  0  0  0
    3.7500   -1.2990    0.0000 C   0  0  0  0  0  0  0  0  0  0  0  0
    5.2500   -1.2990    0.0000 C   0  0  0  0  0  0  0  0  0  0  0  0
    6.0000   -2.5981    0.0000 C   0  0  0  0  0  0  0  0  0  0  0  0
    7.4672   -2.9099    0.0000 N   0  0  0  0  0  0  0  0  0  0  0  0
    7.6240   -4.4017    0.0000 C   0  0  0  0  0  0  0  0  0  0  0  0
    8.9231   -5.1517    0.0000 C   0  0  0  0  0  0  0  0  0  0  0  0
    6.2537   -5.0118    0.0000 C   0  0  0  0  0  0  0  0  0  0  0  0
    5.2500   -3.8971    0.0000 C   0  0  0  0  0  0  0  0  0  0  0  0
    3.7500   -3.8971    0.0000 C   0  0  0  0  0  0  0  0  0  0  0  0
    3.0000   -5.1962    0.0000 F   0  0  0  0  0  0  0  0  0  0  0  0
    1.5000    0.0000    0.0000 N   0  0  0  0  0  0  0  0  0  0  0  0
    0.7500    1.2990    0.0000 C   0  0  0  0  0  0  0  0  0  0  0  0
   -0.7500    1.2990    0.0000 N   0  0  0  0  0  0  0  0  0  0  0  0
   -1.5000    0.0000    0.0000 C   0  0  0  0  0  0  0  0  0  0  0  0
   -3.0000    0.0000    0.0000 C   0  0  0  0  0  0  0  0  0  0  0  0
   -3.7500   -1.2990    0.0000 C   0  0  0  0  0  0  0  0  0  0  0  0
   -5.2500   -1.2990    0.0000 O   0  0  0  0  0  0  0  0  0  0  0  0
   -6.0000    0.0000    0.0000 C   0  0  0  0  0  0  0  0  0  0  0  0
   -7.5000    0.0000    0.0000 C   0  0  0  0  0  0  0  0  0  0  0  0
   -8.2500    1.2990    0.0000 C   0  0  0  0  0  0  0  0  0  0  0  0
   -9.7500    1.2990    0.0000 N   0  0  0  0  0  0  0  0  0  0  0  0
  -10.6317    0.0855    0.0000 C   0  0  0  0  0  0  0  0  0  0  0  0
  -12.0583    0.5490    0.0000 C   0  0  0  0  0  0  0  0  0  0  0  0
  -12.0583    2.0490    0.0000 C   0  0  0  0  0  0  0  0  0  0  0  0
  -10.6317    2.5126    0.0000 C   0  0  0  0  0  0  0  0  0  0  0  0
  1  2  1  0
  2  3  1  0
  3  4  2  0
  4  5  1  0
  5  6  2  0
  6  7  1  0
  7  8  1  0
  8  9  2  0
  9 10  1  0
 10 11  2  0
 11 12  1  0
 12 13  1  0
 13 14  1  0
 13 15  2  0
 15 16  1  0
 16 17  2  0
 17 18  1  0
  6 19  1  0
 19 20  2  0
 20 21  1  0
 21 22  2  0
 22 23  1  0
 23 24  2  0
 24 25  1  0
 25 26  1  0
 26 27  1  0
 27 28  1  0
 28 29  1  0
 29 30  1  0
 30 31  1  0
 31 32  1  0
 32 33  1  0
 24  3  1  0
 22  5  1  0
 17  8  1  0
 16 11  1  0
 33 29  1  0
M  END
>  <Molecule>  (873) 
CHEMBL491473

>  <Standard Type>  (873) 
Ki

>  <Standard Relation>  (873) 
>

>  <Standard Value>  (873) 
3162.28

>  <Standard Units>  (873) 
nM

>  <pChEMBL Value>  (873) 
nan

>  <Comment>  (873) 
inactive

>  <Compound Key>  (873) 
SID103905340

>  <Assay>  (873) 
CHEMBL1963742

>  <Assay Description>  (873) 
PUBCHEM_BIOASSAY: Navigating the Kinome. (Class of assay: other) Panel member name: JAK3

>  <BAO Format>  (873) 
assay format

>  <Target>  (873) 
CHEMBL2148

>  <Target Pref. Name>  (873) 
Tyrosine-protein kinase JAK3

>  <Target Organism>  (873) 
Homo sapiens

>  <Target Type>  (873) 
SINGLE PROTEIN

>  <Document>  (873) 
CHEMBL1201862

>  <Source>  (873) 
PubChem BioAssays

>  <Max Phase>  (873) 
3

>  <#Ro5 Violations>  (873) 
1

>  <Molecular Weight>  (873) 
450.51

>  <Ligand Efficiency BEI>  (873) 
nan

>  <Ligand Efficiency LE>  (873) 
nan

>  <Ligand Efficiency LLE>  (873) 
nan

>  <Ligand Efficiency SEI>  (873) 
nan

>  <ALogP>  (873) 
5.22

>  <Assay Organism>  (873) 
nan

>  <Assay Tissue ChEMBL ID>  (873) 
nan

>  <Assay Tissue Name>  (873) 
nan

>  <Assay Cell Type>  (873) 
nan

>  <Assay Subcellular Fraction>  (873) 
nan

>  <Organism Tax ID>  (873) 
9606

>  <BAO Format ID>  (873) 
BAO_0000019

>  <Published Type>  (873) 
nan

>  <Published Relation>  (873) 
nan

>  <Published Value>  (873) 
nan

>  <Published Units>  (873) 
nan

>  <Canonical Smiles>  (873) 
COc1cc2c(Oc3ccc4[nH]c(C)cc4c3F)ncnc2cc1OCCCN5CCCC5

>  <Data Validity Comment>  (873) 
nan

>  <Document Journal>  (873) 
nan

>  <Document Year>  (873) 
nan

>  <SRC ID>  (873) 
7

>  <UO Units>  (873) 
UO_0000065

>  <Potential Duplicate>  (873) 
False

>  <Class>  (873) 
0

$$$$

     RDKit          2D

 20 23  0  0  0  0  0  0  0  0999 V2000
   -4.6384   -8.1318    0.0000 Br  0  0  0  0  0  0  0  0  0  0  0  0
   -4.3485   -6.6601    0.0000 C   0  0  0  0  0  0  0  0  0  0  0  0
   -5.4781   -5.6732    0.0000 C   0  0  0  0  0  0  0  0  0  0  0  0
   -5.1882   -4.2014    0.0000 C   0  0  0  0  0  0  0  0  0  0  0  0
   -3.7687   -3.7166    0.0000 C   0  0  0  0  0  0  0  0  0  0  0  0
   -3.1792   -2.3373    0.0000 N   0  0  0  0  0  0  0  0  0  0  0  0
   -1.6852   -2.4718    0.0000 C   0  0  0  0  0  0  0  0  0  0  0  0
   -1.3515   -3.9342    0.0000 C   0  0  0  0  0  0  0  0  0  0  0  0
    0.0000   -4.5850    0.0000 C   0  0  0  0  0  0  0  0  0  0  0  0
    1.3515   -3.9342    0.0000 C   0  0  0  0  0  0  0  0  0  0  0  0
    2.5242   -4.8694    0.0000 O   0  0  0  0  0  0  0  0  0  0  0  0
    1.6852   -2.4718    0.0000 N   0  0  0  0  0  0  0  0  0  0  0  0
    0.7500   -1.2990    0.0000 C   0  0  0  0  0  0  0  0  0  0  0  0
    1.5000    0.0000    0.0000 C   0  0  0  0  0  0  0  0  0  0  0  0
    0.7500    1.2990    0.0000 C   0  0  0  0  0  0  0  0  0  0  0  0
   -0.7500    1.2990    0.0000 C   0  0  0  0  0  0  0  0  0  0  0  0
   -1.5000    0.0000    0.0000 C   0  0  0  0  0  0  0  0  0  0  0  0
   -0.7500   -1.2990    0.0000 C   0  0  0  0  0  0  0  0  0  0  0  0
   -2.6391   -4.7035    0.0000 C   0  0  0  0  0  0  0  0  0  0  0  0
   -2.9290   -6.1752    0.0000 C   0  0  0  0  0  0  0  0  0  0  0  0
  1  2  1  0
  2  3  2  0
  3  4  1  0
  4  5  2  0
  5  6  1  0
  6  7  1  0
  7  8  2  0
  8  9  1  0
  9 10  1  0
 10 11  2  0
 10 12  1  0
 12 13  1  0
 13 14  2  0
 14 15  1  0
 15 16  2  0
 16 17  1  0
 17 18  2  0
  8 19  1  0
 19 20  2  0
 20  2  1  0
 19  5  1  0
 18  7  1  0
 18 13  1  0
M  END
>  <Molecule>  (874) 
CHEMBL296586

>  <Standard Type>  (874) 
Ki

>  <Standard Relation>  (874) 
>

>  <Standard Value>  (874) 
1584.89

>  <Standard Units>  (874) 
nM

>  <pChEMBL Value>  (874) 
nan

>  <Comment>  (874) 
inactive

>  <Compound Key>  (874) 
Kenpaullone

>  <Assay>  (874) 
CHEMBL1963742

>  <Assay Description>  (874) 
PUBCHEM_BIOASSAY: Navigating the Kinome. (Class of assay: other) Panel member name: JAK3

>  <BAO Format>  (874) 
assay format

>  <Target>  (874) 
CHEMBL2148

>  <Target Pref. Name>  (874) 
Tyrosine-protein kinase JAK3

>  <Target Organism>  (874) 
Homo sapiens

>  <Target Type>  (874) 
SINGLE PROTEIN

>  <Document>  (874) 
CHEMBL1201862

>  <Source>  (874) 
PubChem BioAssays

>  <Max Phase>  (874) 
0

>  <#Ro5 Violations>  (874) 
0

>  <Molecular Weight>  (874) 
327.18

>  <Ligand Efficiency BEI>  (874) 
nan

>  <Ligand Efficiency LE>  (874) 
nan

>  <Ligand Efficiency LLE>  (874) 
nan

>  <Ligand Efficiency SEI>  (874) 
nan

>  <ALogP>  (874) 
4.09

>  <Assay Organism>  (874) 
nan

>  <Assay Tissue ChEMBL ID>  (874) 
nan

>  <Assay Tissue Name>  (874) 
nan

>  <Assay Cell Type>  (874) 
nan

>  <Assay Subcellular Fraction>  (874) 
nan

>  <Organism Tax ID>  (874) 
9606

>  <BAO Format ID>  (874) 
BAO_0000019

>  <Published Type>  (874) 
nan

>  <Published Relation>  (874) 
nan

>  <Published Value>  (874) 
nan

>  <Published Units>  (874) 
nan

>  <Canonical Smiles>  (874) 
Brc1ccc2[nH]c3c(CC(=O)Nc4ccccc34)c2c1

>  <Data Validity Comment>  (874) 
nan

>  <Document Journal>  (874) 
nan

>  <Document Year>  (874) 
nan

>  <SRC ID>  (874) 
7

>  <UO Units>  (874) 
UO_0000065

>  <Potential Duplicate>  (874) 
False

>  <Class>  (874) 
0

$$$$

     RDKit          2D

 37 41  0  0  0  0  0  0  0  0999 V2000
   -3.7500  -11.6913    0.0000 C   0  0  0  0  0  0  0  0  0  0  0  0
   -3.0000  -10.3923    0.0000 N   0  0  0  0  0  0  0  0  0  0  0  0
   -3.7500   -9.0933    0.0000 C   0  0  0  0  0  0  0  0  0  0  0  0
   -3.0000   -7.7942    0.0000 C   0  0  0  0  0  0  0  0  0  0  0  0
   -1.5000   -7.7942    0.0000 N   0  0  0  0  0  0  0  0  0  0  0  0
   -0.7500   -9.0933    0.0000 C   0  0  0  0  0  0  0  0  0  0  0  0
   -1.5000  -10.3923    0.0000 C   0  0  0  0  0  0  0  0  0  0  0  0
   -0.7500   -6.4952    0.0000 C   0  0  0  0  0  0  0  0  0  0  0  0
    0.7500   -6.4952    0.0000 C   0  0  0  0  0  0  0  0  0  0  0  0
    1.5000   -5.1962    0.0000 C   0  0  0  0  0  0  0  0  0  0  0  0
    0.7500   -3.8971    0.0000 C   0  0  0  0  0  0  0  0  0  0  0  0
    1.5000   -2.5981    0.0000 N   0  0  0  0  0  0  0  0  0  0  0  0
    0.7500   -1.2990    0.0000 C   0  0  0  0  0  0  0  0  0  0  0  0
    1.5000    0.0000    0.0000 N   0  0  0  0  0  0  0  0  0  0  0  0
    0.7500    1.2990    0.0000 C   0  0  0  0  0  0  0  0  0  0  0  0
   -0.7500    1.2990    0.0000 C   0  0  0  0  0  0  0  0  0  0  0  0
   -1.7537    2.4138    0.0000 C   0  0  0  0  0  0  0  0  0  0  0  0
   -1.4418    3.8810    0.0000 O   0  0  0  0  0  0  0  0  0  0  0  0
   -3.1240    1.8037    0.0000 N   0  0  0  0  0  0  0  0  0  0  0  0
   -4.4231    2.5537    0.0000 C   0  0  0  0  0  0  0  0  0  0  0  0
   -4.4231    4.0537    0.0000 C   0  0  0  0  0  0  0  0  0  0  0  0
   -5.7221    4.8037    0.0000 C   0  0  0  0  0  0  0  0  0  0  0  0
   -2.9672    0.3119    0.0000 N   0  0  0  0  0  0  0  0  0  0  0  0
   -4.0819   -0.6918    0.0000 C   0  0  0  0  0  0  0  0  0  0  0  0
   -5.5085   -0.2283    0.0000 C   0  0  0  0  0  0  0  0  0  0  0  0
   -6.6232   -1.2320    0.0000 C   0  0  0  0  0  0  0  0  0  0  0  0
   -6.3114   -2.6992    0.0000 C   0  0  0  0  0  0  0  0  0  0  0  0
   -4.8848   -3.1627    0.0000 C   0  0  0  0  0  0  0  0  0  0  0  0
   -3.7701   -2.1590    0.0000 N   0  0  0  0  0  0  0  0  0  0  0  0
   -4.5729   -4.6300    0.0000 C   0  0  0  0  0  0  0  0  0  0  0  0
   -3.1057   -4.3181    0.0000 C   0  0  0  0  0  0  0  0  0  0  0  0
   -6.0401   -4.9418    0.0000 C   0  0  0  0  0  0  0  0  0  0  0  0
   -4.2611   -6.0972    0.0000 O   0  0  0  0  0  0  0  0  0  0  0  0
   -1.5000    0.0000    0.0000 C   0  0  0  0  0  0  0  0  0  0  0  0
   -0.7500   -1.2990    0.0000 N   0  0  0  0  0  0  0  0  0  0  0  0
   -0.7500   -3.8971    0.0000 C   0  0  0  0  0  0  0  0  0  0  0  0
   -1.5000   -5.1962    0.0000 C   0  0  0  0  0  0  0  0  0  0  0  0
  1  2  1  0
  2  3  1  0
  3  4  1  0
  4  5  1  0
  5  6  1  0
  6  7  1  0
  5  8  1  0
  8  9  2  0
  9 10  1  0
 10 11  2  0
 11 12  1  0
 12 13  1  0
 13 14  2  0
 14 15  1  0
 15 16  2  0
 16 17  1  0
 17 18  2  0
 17 19  1  0
 19 20  1  0
 20 21  1  0
 21 22  2  0
 19 23  1  0
 23 24  1  0
 24 25  2  0
 25 26  1  0
 26 27  2  0
 27 28  1  0
 28 29  2  0
 28 30  1  0
 30 31  1  0
 30 32  1  0
 30 33  1  0
 23 34  1  0
 34 35  2  0
 11 36  1  0
 36 37  2  0
  7  2  1  0
 37  8  1  0
 35 13  1  0
 34 16  1  0
 29 24  1  0
M  END
>  <Molecule>  (875) 
CHEMBL1976040

>  <Standard Type>  (875) 
Ki

>  <Standard Relation>  (875) 
=

>  <Standard Value>  (875) 
1258.93

>  <Standard Units>  (875) 
nM

>  <pChEMBL Value>  (875) 
5.9

>  <Comment>  (875) 
active

>  <Compound Key>  (875) 
SID103905025

>  <Assay>  (875) 
CHEMBL1963742

>  <Assay Description>  (875) 
PUBCHEM_BIOASSAY: Navigating the Kinome. (Class of assay: other) Panel member name: JAK3

>  <BAO Format>  (875) 
assay format

>  <Target>  (875) 
CHEMBL2148

>  <Target Pref. Name>  (875) 
Tyrosine-protein kinase JAK3

>  <Target Organism>  (875) 
Homo sapiens

>  <Target Type>  (875) 
SINGLE PROTEIN

>  <Document>  (875) 
CHEMBL1201862

>  <Source>  (875) 
PubChem BioAssays

>  <Max Phase>  (875) 
2

>  <#Ro5 Violations>  (875) 
1

>  <Molecular Weight>  (875) 
500.61

>  <Ligand Efficiency BEI>  (875) 
nan

>  <Ligand Efficiency LE>  (875) 
nan

>  <Ligand Efficiency LLE>  (875) 
nan

>  <Ligand Efficiency SEI>  (875) 
nan

>  <ALogP>  (875) 
2.89

>  <Assay Organism>  (875) 
nan

>  <Assay Tissue ChEMBL ID>  (875) 
nan

>  <Assay Tissue Name>  (875) 
nan

>  <Assay Cell Type>  (875) 
nan

>  <Assay Subcellular Fraction>  (875) 
nan

>  <Organism Tax ID>  (875) 
9606

>  <BAO Format ID>  (875) 
BAO_0000019

>  <Published Type>  (875) 
nan

>  <Published Relation>  (875) 
nan

>  <Published Value>  (875) 
nan

>  <Published Units>  (875) 
nan

>  <Canonical Smiles>  (875) 
CN1CCN(CC1)c2ccc(Nc3ncc4C(=O)N(CC=C)N(c5cccc(n5)C(C)(C)O)c4n3)cc2

>  <Data Validity Comment>  (875) 
nan

>  <Document Journal>  (875) 
nan

>  <Document Year>  (875) 
nan

>  <SRC ID>  (875) 
7

>  <UO Units>  (875) 
UO_0000065

>  <Potential Duplicate>  (875) 
False

>  <Class>  (875) 
1

$$$$

     RDKit          2D

 20 22  0  0  0  0  0  0  0  0999 V2000
   -3.0000   -4.0981    0.0000 O   0  0  0  0  0  0  0  0  0  0  0  0
   -3.0000   -2.5981    0.0000 S   0  0  0  0  0  0  0  0  0  0  0  0
   -3.0000   -1.0981    0.0000 O   0  0  0  0  0  0  0  0  0  0  0  0
   -4.5000   -2.5981    0.0000 N   0  0  0  0  0  0  0  0  0  0  0  0
   -5.1508   -3.9495    0.0000 C   0  0  0  0  0  0  0  0  0  0  0  0
   -6.6132   -4.2833    0.0000 C   0  0  0  0  0  0  0  0  0  0  0  0
   -7.7860   -3.3481    0.0000 C   0  0  0  0  0  0  0  0  0  0  0  0
   -7.7860   -1.8481    0.0000 N   0  0  0  0  0  0  0  0  0  0  0  0
   -6.6132   -0.9128    0.0000 C   0  0  0  0  0  0  0  0  0  0  0  0
   -5.1508   -1.2466    0.0000 C   0  0  0  0  0  0  0  0  0  0  0  0
   -1.5000   -2.5981    0.0000 C   0  0  0  0  0  0  0  0  0  0  0  0
   -0.7500   -3.8971    0.0000 C   0  0  0  0  0  0  0  0  0  0  0  0
    0.7500   -3.8971    0.0000 C   0  0  0  0  0  0  0  0  0  0  0  0
    1.5000   -2.5981    0.0000 C   0  0  0  0  0  0  0  0  0  0  0  0
    0.7500   -1.2990    0.0000 C   0  0  0  0  0  0  0  0  0  0  0  0
    1.5000    0.0000    0.0000 C   0  0  0  0  0  0  0  0  0  0  0  0
    0.7500    1.2990    0.0000 N   0  0  0  0  0  0  0  0  0  0  0  0
   -0.7500    1.2990    0.0000 C   0  0  0  0  0  0  0  0  0  0  0  0
   -1.5000    0.0000    0.0000 C   0  0  0  0  0  0  0  0  0  0  0  0
   -0.7500   -1.2990    0.0000 C   0  0  0  0  0  0  0  0  0  0  0  0
  1  2  2  0
  2  3  2  0
  2  4  1  0
  4  5  1  0
  5  6  1  0
  6  7  1  0
  7  8  1  0
  8  9  1  0
  9 10  1  0
  2 11  1  0
 11 12  2  0
 12 13  1  0
 13 14  2  0
 14 15  1  0
 15 16  2  0
 16 17  1  0
 17 18  2  0
 18 19  1  0
 19 20  2  0
 10  4  1  0
 20 11  1  0
 20 15  1  0
M  END
>  <Molecule>  (876) 
CHEMBL38380

>  <Standard Type>  (876) 
Ki

>  <Standard Relation>  (876) 
>

>  <Standard Value>  (876) 
1584.89

>  <Standard Units>  (876) 
nM

>  <pChEMBL Value>  (876) 
nan

>  <Comment>  (876) 
inactive

>  <Compound Key>  (876) 
HA-1077

>  <Assay>  (876) 
CHEMBL1963742

>  <Assay Description>  (876) 
PUBCHEM_BIOASSAY: Navigating the Kinome. (Class of assay: other) Panel member name: JAK3

>  <BAO Format>  (876) 
assay format

>  <Target>  (876) 
CHEMBL2148

>  <Target Pref. Name>  (876) 
Tyrosine-protein kinase JAK3

>  <Target Organism>  (876) 
Homo sapiens

>  <Target Type>  (876) 
SINGLE PROTEIN

>  <Document>  (876) 
CHEMBL1201862

>  <Source>  (876) 
PubChem BioAssays

>  <Max Phase>  (876) 
3

>  <#Ro5 Violations>  (876) 
0

>  <Molecular Weight>  (876) 
291.38

>  <Ligand Efficiency BEI>  (876) 
nan

>  <Ligand Efficiency LE>  (876) 
nan

>  <Ligand Efficiency LLE>  (876) 
nan

>  <Ligand Efficiency SEI>  (876) 
nan

>  <ALogP>  (876) 
1.22

>  <Assay Organism>  (876) 
nan

>  <Assay Tissue ChEMBL ID>  (876) 
nan

>  <Assay Tissue Name>  (876) 
nan

>  <Assay Cell Type>  (876) 
nan

>  <Assay Subcellular Fraction>  (876) 
nan

>  <Organism Tax ID>  (876) 
9606

>  <BAO Format ID>  (876) 
BAO_0000019

>  <Published Type>  (876) 
nan

>  <Published Relation>  (876) 
nan

>  <Published Value>  (876) 
nan

>  <Published Units>  (876) 
nan

>  <Canonical Smiles>  (876) 
O=S(=O)(N1CCCNCC1)c2cccc3cnccc23

>  <Data Validity Comment>  (876) 
nan

>  <Document Journal>  (876) 
nan

>  <Document Year>  (876) 
nan

>  <SRC ID>  (876) 
7

>  <UO Units>  (876) 
UO_0000065

>  <Potential Duplicate>  (876) 
False

>  <Class>  (876) 
0

$$$$

     RDKit          2D

 29 33  0  0  0  0  0  0  0  0999 V2000
    3.3037  -15.8202    0.0000 C   0  0  0  0  0  0  0  0  0  0  0  0
    3.3037  -14.3202    0.0000 N   0  0  0  0  0  0  0  0  0  0  0  0
    2.0046  -13.5702    0.0000 C   0  0  0  0  0  0  0  0  0  0  0  0
    2.0046  -12.0702    0.0000 C   0  0  0  0  0  0  0  0  0  0  0  0
    3.3037  -11.3202    0.0000 N   0  0  0  0  0  0  0  0  0  0  0  0
    4.6027  -12.0702    0.0000 C   0  0  0  0  0  0  0  0  0  0  0  0
    4.6027  -13.5702    0.0000 C   0  0  0  0  0  0  0  0  0  0  0  0
    3.3037   -9.8202    0.0000 C   0  0  0  0  0  0  0  0  0  0  0  0
    4.6027   -9.0702    0.0000 C   0  0  0  0  0  0  0  0  0  0  0  0
    4.6027   -7.5702    0.0000 C   0  0  0  0  0  0  0  0  0  0  0  0
    3.3037   -6.8202    0.0000 C   0  0  0  0  0  0  0  0  0  0  0  0
    2.9918   -5.3529    0.0000 N   0  0  0  0  0  0  0  0  0  0  0  0
    1.5000   -5.1962    0.0000 C   0  0  0  0  0  0  0  0  0  0  0  0
    0.8899   -6.5665    0.0000 N   0  0  0  0  0  0  0  0  0  0  0  0
    2.0046   -7.5702    0.0000 C   0  0  0  0  0  0  0  0  0  0  0  0
    2.0046   -9.0702    0.0000 C   0  0  0  0  0  0  0  0  0  0  0  0
    0.7500   -3.8971    0.0000 C   0  0  0  0  0  0  0  0  0  0  0  0
    1.5000   -2.5981    0.0000 C   0  0  0  0  0  0  0  0  0  0  0  0
    3.0000   -2.5981    0.0000 N   0  0  0  0  0  0  0  0  0  0  0  0
    0.7500   -1.2990    0.0000 C   0  0  0  0  0  0  0  0  0  0  0  0
    1.5000    0.0000    0.0000 C   0  0  0  0  0  0  0  0  0  0  0  0
    3.0000    0.0000    0.0000 F   0  0  0  0  0  0  0  0  0  0  0  0
    0.7500    1.2990    0.0000 C   0  0  0  0  0  0  0  0  0  0  0  0
   -0.7500    1.2990    0.0000 C   0  0  0  0  0  0  0  0  0  0  0  0
   -1.5000    0.0000    0.0000 C   0  0  0  0  0  0  0  0  0  0  0  0
   -0.7500   -1.2990    0.0000 C   0  0  0  0  0  0  0  0  0  0  0  0
   -1.5000   -2.5981    0.0000 N   0  0  0  0  0  0  0  0  0  0  0  0
   -0.7500   -3.8971    0.0000 C   0  0  0  0  0  0  0  0  0  0  0  0
   -1.5000   -5.1962    0.0000 O   0  0  0  0  0  0  0  0  0  0  0  0
  1  2  1  0
  2  3  1  0
  3  4  1  0
  4  5  1  0
  5  6  1  0
  6  7  1  0
  5  8  1  0
  8  9  2  0
  9 10  1  0
 10 11  2  0
 11 12  1  0
 12 13  2  0
 13 14  1  0
 14 15  1  0
 15 16  2  0
 13 17  1  0
 17 18  2  0
 18 19  1  0
 18 20  1  0
 20 21  2  0
 21 22  1  0
 21 23  1  0
 23 24  2  0
 24 25  1  0
 25 26  2  0
 26 27  1  0
 27 28  1  0
 28 29  2  0
  7  2  1  0
 16  8  1  0
 15 11  1  0
 28 17  1  0
 26 20  1  0
M  END
>  <Molecule>  (877) 
CHEMBL522892

>  <Standard Type>  (877) 
Ki

>  <Standard Relation>  (877) 
>

>  <Standard Value>  (877) 
3162.28

>  <Standard Units>  (877) 
nM

>  <pChEMBL Value>  (877) 
nan

>  <Comment>  (877) 
inactive

>  <Compound Key>  (877) 
SID103904684

>  <Assay>  (877) 
CHEMBL1963742

>  <Assay Description>  (877) 
PUBCHEM_BIOASSAY: Navigating the Kinome. (Class of assay: other) Panel member name: JAK3

>  <BAO Format>  (877) 
assay format

>  <Target>  (877) 
CHEMBL2148

>  <Target Pref. Name>  (877) 
Tyrosine-protein kinase JAK3

>  <Target Organism>  (877) 
Homo sapiens

>  <Target Type>  (877) 
SINGLE PROTEIN

>  <Document>  (877) 
CHEMBL1201862

>  <Source>  (877) 
PubChem BioAssays

>  <Max Phase>  (877) 
3

>  <#Ro5 Violations>  (877) 
0

>  <Molecular Weight>  (877) 
392.44

>  <Ligand Efficiency BEI>  (877) 
nan

>  <Ligand Efficiency LE>  (877) 
nan

>  <Ligand Efficiency LLE>  (877) 
nan

>  <Ligand Efficiency SEI>  (877) 
nan

>  <ALogP>  (877) 
2.54

>  <Assay Organism>  (877) 
nan

>  <Assay Tissue ChEMBL ID>  (877) 
nan

>  <Assay Tissue Name>  (877) 
nan

>  <Assay Cell Type>  (877) 
nan

>  <Assay Subcellular Fraction>  (877) 
nan

>  <Organism Tax ID>  (877) 
9606

>  <BAO Format ID>  (877) 
BAO_0000019

>  <Published Type>  (877) 
nan

>  <Published Relation>  (877) 
nan

>  <Published Value>  (877) 
nan

>  <Published Units>  (877) 
nan

>  <Canonical Smiles>  (877) 
CN1CCN(CC1)c2ccc3nc([nH]c3c2)C4=C(N)c5c(F)cccc5NC4=O

>  <Data Validity Comment>  (877) 
nan

>  <Document Journal>  (877) 
nan

>  <Document Year>  (877) 
nan

>  <SRC ID>  (877) 
7

>  <UO Units>  (877) 
UO_0000065

>  <Potential Duplicate>  (877) 
False

>  <Class>  (877) 
0

$$$$

     RDKit          2D

 38 41  0  0  0  0  0  0  0  0999 V2000
    3.7500   -1.2990    0.0000 C   0  0  0  0  0  0  0  0  0  0  0  0
    3.0000    0.0000    0.0000 C   0  0  0  0  0  0  0  0  0  0  0  0
    1.5000    0.0000    0.0000 N   0  0  0  0  0  0  0  0  0  0  0  0
    0.7500   -1.2990    0.0000 C   0  0  0  0  0  0  0  0  0  0  0  0
   -0.7500   -1.2990    0.0000 C   0  0  0  0  0  0  0  0  0  0  0  0
   -1.5000    0.0000    0.0000 N   0  0  0  0  0  0  0  0  0  0  0  0
   -3.0000    0.0000    0.0000 C   0  0  0  0  0  0  0  0  0  0  0  0
   -3.7500    1.2990    0.0000 C   0  0  0  0  0  0  0  0  0  0  0  0
   -3.0000    2.5981    0.0000 C   0  0  0  0  0  0  0  0  0  0  0  0
   -3.7500    3.8971    0.0000 C   0  0  0  0  0  0  0  0  0  0  0  0
   -5.2500    3.8971    0.0000 C   0  0  0  0  0  0  0  0  0  0  0  0
   -6.0000    5.1962    0.0000 N   0  0  0  0  0  0  0  0  0  0  0  0
   -5.2500    6.4952    0.0000 C   0  0  0  0  0  0  0  0  0  0  0  0
   -3.7500    6.4952    0.0000 O   0  0  0  0  0  0  0  0  0  0  0  0
   -6.0000    7.7942    0.0000 N   0  0  0  0  0  0  0  0  0  0  0  0
   -5.2500    9.0933    0.0000 C   0  0  0  0  0  0  0  0  0  0  0  0
   -3.7500    9.0933    0.0000 C   0  0  0  0  0  0  0  0  0  0  0  0
   -3.0000   10.3923    0.0000 C   0  0  0  0  0  0  0  0  0  0  0  0
   -3.7500   11.6913    0.0000 C   0  0  0  0  0  0  0  0  0  0  0  0
   -3.0000   12.9904    0.0000 O   0  0  0  0  0  0  0  0  0  0  0  0
   -1.5000   12.9904    0.0000 C   0  0  0  0  0  0  0  0  0  0  0  0
   -0.7500   11.6913    0.0000 C   0  0  0  0  0  0  0  0  0  0  0  0
    0.7500   11.6913    0.0000 C   0  0  0  0  0  0  0  0  0  0  0  0
    1.5000   10.3923    0.0000 N   0  0  0  0  0  0  0  0  0  0  0  0
    0.7500    9.0933    0.0000 C   0  0  0  0  0  0  0  0  0  0  0  0
    1.5000   12.9904    0.0000 N   0  0  0  0  0  0  0  0  0  0  0  0
    0.7500   14.2894    0.0000 C   0  0  0  0  0  0  0  0  0  0  0  0
   -0.7500   14.2894    0.0000 N   0  0  0  0  0  0  0  0  0  0  0  0
   -5.2500   11.6913    0.0000 C   0  0  0  0  0  0  0  0  0  0  0  0
   -6.0000   10.3923    0.0000 C   0  0  0  0  0  0  0  0  0  0  0  0
   -6.0000    2.5981    0.0000 C   0  0  0  0  0  0  0  0  0  0  0  0
   -5.2500    1.2990    0.0000 C   0  0  0  0  0  0  0  0  0  0  0  0
   -6.0000    0.0000    0.0000 C   0  0  0  0  0  0  0  0  0  0  0  0
   -6.7500   -1.2990    0.0000 F   0  0  0  0  0  0  0  0  0  0  0  0
   -7.2990    0.7500    0.0000 F   0  0  0  0  0  0  0  0  0  0  0  0
   -4.7010   -0.7500    0.0000 F   0  0  0  0  0  0  0  0  0  0  0  0
   -0.7500    1.2990    0.0000 C   0  0  0  0  0  0  0  0  0  0  0  0
    0.7500    1.2990    0.0000 C   0  0  0  0  0  0  0  0  0  0  0  0
  1  2  1  0
  2  3  1  0
  3  4  1  0
  4  5  1  0
  5  6  1  0
  6  7  1  0
  7  8  1  0
  8  9  2  0
  9 10  1  0
 10 11  2  0
 11 12  1  0
 12 13  1  0
 13 14  2  0
 13 15  1  0
 15 16  1  0
 16 17  2  0
 17 18  1  0
 18 19  2  0
 19 20  1  0
 20 21  1  0
 21 22  2  0
 22 23  1  0
 23 24  1  0
 24 25  1  0
 23 26  2  0
 26 27  1  0
 27 28  2  0
 19 29  1  0
 29 30  2  0
 11 31  1  0
 31 32  2  0
 32 33  1  0
 33 34  1  0
 33 35  1  0
 33 36  1  0
  6 37  1  0
 37 38  1  0
 38  3  1  0
 32  8  1  0
 30 16  1  0
 28 21  1  0
M  END
>  <Molecule>  (878) 
CHEMBL574738

>  <Standard Type>  (878) 
Ki

>  <Standard Relation>  (878) 
>

>  <Standard Value>  (878) 
5011.87

>  <Standard Units>  (878) 
nM

>  <pChEMBL Value>  (878) 
nan

>  <Comment>  (878) 
inactive

>  <Compound Key>  (878) 
SID103905682

>  <Assay>  (878) 
CHEMBL1963742

>  <Assay Description>  (878) 
PUBCHEM_BIOASSAY: Navigating the Kinome. (Class of assay: other) Panel member name: JAK3

>  <BAO Format>  (878) 
assay format

>  <Target>  (878) 
CHEMBL2148

>  <Target Pref. Name>  (878) 
Tyrosine-protein kinase JAK3

>  <Target Organism>  (878) 
Homo sapiens

>  <Target Type>  (878) 
SINGLE PROTEIN

>  <Document>  (878) 
CHEMBL1201862

>  <Source>  (878) 
PubChem BioAssays

>  <Max Phase>  (878) 
1

>  <#Ro5 Violations>  (878) 
2

>  <Molecular Weight>  (878) 
529.57

>  <Ligand Efficiency BEI>  (878) 
nan

>  <Ligand Efficiency LE>  (878) 
nan

>  <Ligand Efficiency LLE>  (878) 
nan

>  <Ligand Efficiency SEI>  (878) 
nan

>  <ALogP>  (878) 
5.11

>  <Assay Organism>  (878) 
nan

>  <Assay Tissue ChEMBL ID>  (878) 
nan

>  <Assay Tissue Name>  (878) 
nan

>  <Assay Cell Type>  (878) 
nan

>  <Assay Subcellular Fraction>  (878) 
nan

>  <Organism Tax ID>  (878) 
9606

>  <BAO Format ID>  (878) 
BAO_0000019

>  <Published Type>  (878) 
nan

>  <Published Relation>  (878) 
nan

>  <Published Value>  (878) 
nan

>  <Published Units>  (878) 
nan

>  <Canonical Smiles>  (878) 
CCN1CCN(Cc2ccc(NC(=O)Nc3ccc(Oc4cc(NC)ncn4)cc3)cc2C(F)(F)F)CC1

>  <Data Validity Comment>  (878) 
nan

>  <Document Journal>  (878) 
nan

>  <Document Year>  (878) 
nan

>  <SRC ID>  (878) 
7

>  <UO Units>  (878) 
UO_0000065

>  <Potential Duplicate>  (878) 
False

>  <Class>  (878) 
0

$$$$

     RDKit          2D

 41 46  0  0  0  0  0  0  0  0999 V2000
  -12.9381   -7.9010    0.0000 C   0  0  0  0  0  0  0  0  0  0  0  0
  -11.5115   -7.4375    0.0000 N   0  0  0  0  0  0  0  0  0  0  0  0
  -11.1996   -5.9703    0.0000 C   0  0  0  0  0  0  0  0  0  0  0  0
   -9.7730   -5.5068    0.0000 C   0  0  0  0  0  0  0  0  0  0  0  0
   -8.6583   -6.5105    0.0000 N   0  0  0  0  0  0  0  0  0  0  0  0
   -8.9702   -7.9777    0.0000 C   0  0  0  0  0  0  0  0  0  0  0  0
  -10.3968   -8.4412    0.0000 C   0  0  0  0  0  0  0  0  0  0  0  0
   -7.2317   -6.0469    0.0000 C   0  0  0  0  0  0  0  0  0  0  0  0
   -6.1170   -7.0506    0.0000 C   0  0  0  0  0  0  0  0  0  0  0  0
   -4.6904   -6.5871    0.0000 C   0  0  0  0  0  0  0  0  0  0  0  0
   -4.3786   -5.1199    0.0000 C   0  0  0  0  0  0  0  0  0  0  0  0
   -2.9520   -4.6564    0.0000 C   0  0  0  0  0  0  0  0  0  0  0  0
   -1.8373   -5.6601    0.0000 O   0  0  0  0  0  0  0  0  0  0  0  0
   -2.6401   -3.1891    0.0000 N   0  0  0  0  0  0  0  0  0  0  0  0
   -1.2135   -2.7256    0.0000 C   0  0  0  0  0  0  0  0  0  0  0  0
    0.0000   -3.6073    0.0000 N   0  0  0  0  0  0  0  0  0  0  0  0
    1.2135   -2.7256    0.0000 N   0  0  0  0  0  0  0  0  0  0  0  0
    0.7500   -1.2990    0.0000 C   0  0  0  0  0  0  0  0  0  0  0  0
    1.5000    0.0000    0.0000 C   0  0  0  0  0  0  0  0  0  0  0  0
    0.7500    1.2990    0.0000 C   0  0  0  0  0  0  0  0  0  0  0  0
   -0.7500    1.2990    0.0000 C   0  0  0  0  0  0  0  0  0  0  0  0
   -1.5000    2.5981    0.0000 C   0  0  0  0  0  0  0  0  0  0  0  0
   -0.7500    3.8971    0.0000 C   0  0  0  0  0  0  0  0  0  0  0  0
    0.7500    3.8971    0.0000 C   0  0  0  0  0  0  0  0  0  0  0  0
    1.5000    5.1962    0.0000 C   0  0  0  0  0  0  0  0  0  0  0  0
    3.0000    5.1962    0.0000 F   0  0  0  0  0  0  0  0  0  0  0  0
    0.7500    6.4952    0.0000 C   0  0  0  0  0  0  0  0  0  0  0  0
   -0.7500    6.4952    0.0000 C   0  0  0  0  0  0  0  0  0  0  0  0
   -1.5000    7.7942    0.0000 F   0  0  0  0  0  0  0  0  0  0  0  0
   -1.5000    5.1962    0.0000 C   0  0  0  0  0  0  0  0  0  0  0  0
   -1.5000    0.0000    0.0000 C   0  0  0  0  0  0  0  0  0  0  0  0
   -0.7500   -1.2990    0.0000 C   0  0  0  0  0  0  0  0  0  0  0  0
   -5.4933   -4.1162    0.0000 C   0  0  0  0  0  0  0  0  0  0  0  0
   -5.1814   -2.6490    0.0000 N   0  0  0  0  0  0  0  0  0  0  0  0
   -6.2961   -1.6453    0.0000 C   0  0  0  0  0  0  0  0  0  0  0  0
   -5.9843   -0.1781    0.0000 C   0  0  0  0  0  0  0  0  0  0  0  0
   -7.0990    0.8256    0.0000 C   0  0  0  0  0  0  0  0  0  0  0  0
   -8.5256    0.3621    0.0000 O   0  0  0  0  0  0  0  0  0  0  0  0
   -8.8374   -1.1051    0.0000 C   0  0  0  0  0  0  0  0  0  0  0  0
   -7.7227   -2.1088    0.0000 C   0  0  0  0  0  0  0  0  0  0  0  0
   -6.9199   -4.5797    0.0000 C   0  0  0  0  0  0  0  0  0  0  0  0
  1  2  1  0
  2  3  1  0
  3  4  1  0
  4  5  1  0
  5  6  1  0
  6  7  1  0
  5  8  1  0
  8  9  2  0
  9 10  1  0
 10 11  2  0
 11 12  1  0
 12 13  2  0
 12 14  1  0
 14 15  1  0
 15 16  2  0
 16 17  1  0
 17 18  1  0
 18 19  2  0
 19 20  1  0
 20 21  2  0
 21 22  1  0
 22 23  1  0
 23 24  2  0
 24 25  1  0
 25 26  1  0
 25 27  2  0
 27 28  1  0
 28 29  1  0
 28 30  2  0
 21 31  1  0
 31 32  2  0
 11 33  1  0
 33 34  1  0
 34 35  1  0
 35 36  1  0
 36 37  1  0
 37 38  1  0
 38 39  1  0
 39 40  1  0
 33 41  2  0
  7  2  1  0
 41  8  1  0
 32 15  1  0
 32 18  1  0
 30 23  1  0
 40 35  1  0
M  END
>  <Molecule>  (879) 
CHEMBL1983268

>  <Standard Type>  (879) 
Ki

>  <Standard Relation>  (879) 
=

>  <Standard Value>  (879) 
501.19

>  <Standard Units>  (879) 
nM

>  <pChEMBL Value>  (879) 
6.3

>  <Comment>  (879) 
active

>  <Compound Key>  (879) 
SID103905026

>  <Assay>  (879) 
CHEMBL1963742

>  <Assay Description>  (879) 
PUBCHEM_BIOASSAY: Navigating the Kinome. (Class of assay: other) Panel member name: JAK3

>  <BAO Format>  (879) 
assay format

>  <Target>  (879) 
CHEMBL2148

>  <Target Pref. Name>  (879) 
Tyrosine-protein kinase JAK3

>  <Target Organism>  (879) 
Homo sapiens

>  <Target Type>  (879) 
SINGLE PROTEIN

>  <Document>  (879) 
CHEMBL1201862

>  <Source>  (879) 
PubChem BioAssays

>  <Max Phase>  (879) 
2

>  <#Ro5 Violations>  (879) 
2

>  <Molecular Weight>  (879) 
560.65

>  <Ligand Efficiency BEI>  (879) 
nan

>  <Ligand Efficiency LE>  (879) 
nan

>  <Ligand Efficiency LLE>  (879) 
nan

>  <Ligand Efficiency SEI>  (879) 
nan

>  <ALogP>  (879) 
5.03

>  <Assay Organism>  (879) 
nan

>  <Assay Tissue ChEMBL ID>  (879) 
nan

>  <Assay Tissue Name>  (879) 
nan

>  <Assay Cell Type>  (879) 
nan

>  <Assay Subcellular Fraction>  (879) 
nan

>  <Organism Tax ID>  (879) 
9606

>  <BAO Format ID>  (879) 
BAO_0000019

>  <Published Type>  (879) 
nan

>  <Published Relation>  (879) 
nan

>  <Published Value>  (879) 
nan

>  <Published Units>  (879) 
nan

>  <Canonical Smiles>  (879) 
CN1CCN(CC1)c2ccc(C(=O)Nc3n[nH]c4ccc(Cc5cc(F)cc(F)c5)cc34)c(NC6CCOCC6)c2

>  <Data Validity Comment>  (879) 
nan

>  <Document Journal>  (879) 
nan

>  <Document Year>  (879) 
nan

>  <SRC ID>  (879) 
7

>  <UO Units>  (879) 
UO_0000065

>  <Potential Duplicate>  (879) 
False

>  <Class>  (879) 
1

$$$$

     RDKit          2D

 25 28  0  0  0  0  0  0  0  0999 V2000
   -3.7548   -2.1855    0.0000 C   0  0  0  0  0  0  0  0  0  0  0  0
   -2.6401   -3.1891    0.0000 C   0  0  0  0  0  0  0  0  0  0  0  0
   -1.2135   -2.7256    0.0000 N   0  0  0  0  0  0  0  0  0  0  0  0
   -0.0000   -3.6073    0.0000 C   0  0  0  0  0  0  0  0  0  0  0  0
    1.2135   -2.7256    0.0000 N   0  0  0  0  0  0  0  0  0  0  0  0
    0.7500   -1.2990    0.0000 C   0  0  0  0  0  0  0  0  0  0  0  0
    1.5000    0.0000    0.0000 C   0  0  0  0  0  0  0  0  0  0  0  0
    0.7500    1.2990    0.0000 N   0  0  0  0  0  0  0  0  0  0  0  0
   -0.7500    1.2990    0.0000 C   0  0  0  0  0  0  0  0  0  0  0  0
   -1.5000    0.0000    0.0000 C   0  0  0  0  0  0  0  0  0  0  0  0
   -3.0000    0.0000    0.0000 C   0  0  0  0  0  0  0  0  0  0  0  0
   -3.7500   -1.2990    0.0000 O   0  0  0  0  0  0  0  0  0  0  0  0
   -3.7500    1.2990    0.0000 N   0  0  0  0  0  0  0  0  0  0  0  0
   -5.2418    1.4558    0.0000 C   0  0  0  0  0  0  0  0  0  0  0  0
   -5.5537    2.9231    0.0000 C   0  0  0  0  0  0  0  0  0  0  0  0
   -4.2546    3.6731    0.0000 C   0  0  0  0  0  0  0  0  0  0  0  0
   -4.0978    5.1648    0.0000 N   0  0  0  0  0  0  0  0  0  0  0  0
   -3.1399    2.6694    0.0000 C   0  0  0  0  0  0  0  0  0  0  0  0
   -0.7500   -1.2990    0.0000 C   0  0  0  0  0  0  0  0  0  0  0  0
   -0.0000   -5.1073    0.0000 C   0  0  0  0  0  0  0  0  0  0  0  0
    1.2135   -5.9890    0.0000 N   0  0  0  0  0  0  0  0  0  0  0  0
    0.7500   -7.4156    0.0000 O   0  0  0  0  0  0  0  0  0  0  0  0
   -0.7500   -7.4156    0.0000 N   0  0  0  0  0  0  0  0  0  0  0  0
   -1.2135   -5.9890    0.0000 C   0  0  0  0  0  0  0  0  0  0  0  0
   -2.6401   -5.5255    0.0000 N   0  0  0  0  0  0  0  0  0  0  0  0
  1  2  1  0
  2  3  1  0
  3  4  1  0
  4  5  2  0
  5  6  1  0
  6  7  2  0
  7  8  1  0
  8  9  2  0
  9 10  1  0
 10 11  1  0
 11 12  2  0
 11 13  1  0
 13 14  1  0
 14 15  1  0
 15 16  1  0
 16 17  1  0
 16 18  1  0
 10 19  2  0
  4 20  1  0
 20 21  2  0
 21 22  1  0
 22 23  1  0
 23 24  2  0
 24 25  1  0
 19  3  1  0
 19  6  1  0
 18 13  1  0
 24 20  1  0
M  END
>  <Molecule>  (880) 
CHEMBL1870106

>  <Standard Type>  (880) 
Ki

>  <Standard Relation>  (880) 
>

>  <Standard Value>  (880) 
5011.87

>  <Standard Units>  (880) 
nM

>  <pChEMBL Value>  (880) 
nan

>  <Comment>  (880) 
inactive

>  <Compound Key>  (880) 
SID103905669

>  <Assay>  (880) 
CHEMBL1963742

>  <Assay Description>  (880) 
PUBCHEM_BIOASSAY: Navigating the Kinome. (Class of assay: other) Panel member name: JAK3

>  <BAO Format>  (880) 
assay format

>  <Target>  (880) 
CHEMBL2148

>  <Target Pref. Name>  (880) 
Tyrosine-protein kinase JAK3

>  <Target Organism>  (880) 
Homo sapiens

>  <Target Type>  (880) 
SINGLE PROTEIN

>  <Document>  (880) 
CHEMBL1201862

>  <Source>  (880) 
PubChem BioAssays

>  <Max Phase>  (880) 
0

>  <#Ro5 Violations>  (880) 
0

>  <Molecular Weight>  (880) 
342.36

>  <Ligand Efficiency BEI>  (880) 
nan

>  <Ligand Efficiency LE>  (880) 
nan

>  <Ligand Efficiency LLE>  (880) 
nan

>  <Ligand Efficiency SEI>  (880) 
nan

>  <ALogP>  (880) 
0.26

>  <Assay Organism>  (880) 
nan

>  <Assay Tissue ChEMBL ID>  (880) 
nan

>  <Assay Tissue Name>  (880) 
nan

>  <Assay Cell Type>  (880) 
nan

>  <Assay Subcellular Fraction>  (880) 
nan

>  <Organism Tax ID>  (880) 
9606

>  <BAO Format ID>  (880) 
BAO_0000019

>  <Published Type>  (880) 
nan

>  <Published Relation>  (880) 
nan

>  <Published Value>  (880) 
nan

>  <Published Units>  (880) 
nan

>  <Canonical Smiles>  (880) 
CCn1c(nc2cncc(C(=O)N3CCC(N)C3)c12)c4nonc4N

>  <Data Validity Comment>  (880) 
nan

>  <Document Journal>  (880) 
nan

>  <Document Year>  (880) 
nan

>  <SRC ID>  (880) 
7

>  <UO Units>  (880) 
UO_0000065

>  <Potential Duplicate>  (880) 
False

>  <Class>  (880) 
0

$$$$

     RDKit          2D

 24 27  0  0  0  0  0  0  0  0999 V2000
   -5.0487    4.2236    0.0000 N   0  0  0  0  0  0  0  0  0  0  0  0
   -5.3605    2.7564    0.0000 C   0  0  0  0  0  0  0  0  0  0  0  0
   -4.2458    1.7527    0.0000 C   0  0  0  0  0  0  0  0  0  0  0  0
   -4.5577    0.2855    0.0000 C   0  0  0  0  0  0  0  0  0  0  0  0
   -5.9843   -0.1781    0.0000 C   0  0  0  0  0  0  0  0  0  0  0  0
   -7.0990    0.8256    0.0000 C   0  0  0  0  0  0  0  0  0  0  0  0
   -6.7871    2.2929    0.0000 C   0  0  0  0  0  0  0  0  0  0  0  0
   -6.2961   -1.6453    0.0000 N   0  0  0  0  0  0  0  0  0  0  0  0
   -5.1814   -2.6490    0.0000 C   0  0  0  0  0  0  0  0  0  0  0  0
   -5.4933   -4.1162    0.0000 N   0  0  0  0  0  0  0  0  0  0  0  0
   -4.3786   -5.1199    0.0000 C   0  0  0  0  0  0  0  0  0  0  0  0
   -4.6904   -6.5871    0.0000 Cl  0  0  0  0  0  0  0  0  0  0  0  0
   -2.9520   -4.6564    0.0000 C   0  0  0  0  0  0  0  0  0  0  0  0
   -2.6401   -3.1891    0.0000 C   0  0  0  0  0  0  0  0  0  0  0  0
   -3.7548   -2.1855    0.0000 N   0  0  0  0  0  0  0  0  0  0  0  0
   -1.2135   -2.7256    0.0000 C   0  0  0  0  0  0  0  0  0  0  0  0
    0.0000   -3.6073    0.0000 C   0  0  0  0  0  0  0  0  0  0  0  0
    1.2135   -2.7256    0.0000 N   0  0  0  0  0  0  0  0  0  0  0  0
    0.7500   -1.2990    0.0000 C   0  0  0  0  0  0  0  0  0  0  0  0
    1.5000    0.0000    0.0000 N   0  0  0  0  0  0  0  0  0  0  0  0
    0.7500    1.2990    0.0000 C   0  0  0  0  0  0  0  0  0  0  0  0
   -0.7500    1.2990    0.0000 C   0  0  0  0  0  0  0  0  0  0  0  0
   -1.5000    0.0000    0.0000 C   0  0  0  0  0  0  0  0  0  0  0  0
   -0.7500   -1.2990    0.0000 C   0  0  0  0  0  0  0  0  0  0  0  0
  1  2  1  0
  2  3  1  0
  3  4  1  0
  4  5  1  0
  5  6  1  0
  6  7  1  0
  5  8  1  0
  8  9  1  0
  9 10  2  0
 10 11  1  0
 11 12  1  0
 11 13  2  0
 13 14  1  0
 14 15  2  0
 14 16  1  0
 16 17  2  0
 17 18  1  0
 18 19  1  0
 19 20  2  0
 20 21  1  0
 21 22  2  0
 22 23  1  0
 23 24  2  0
  7  2  1  0
 15  9  1  0
 24 16  1  0
 24 19  1  0
M  END
>  <Molecule>  (881) 
CHEMBL1973720

>  <Standard Type>  (881) 
Ki

>  <Standard Relation>  (881) 
=

>  <Standard Value>  (881) 
158.49

>  <Standard Units>  (881) 
nM

>  <pChEMBL Value>  (881) 
6.8

>  <Comment>  (881) 
active

>  <Compound Key>  (881) 
SID103904200

>  <Assay>  (881) 
CHEMBL1963742

>  <Assay Description>  (881) 
PUBCHEM_BIOASSAY: Navigating the Kinome. (Class of assay: other) Panel member name: JAK3

>  <BAO Format>  (881) 
assay format

>  <Target>  (881) 
CHEMBL2148

>  <Target Pref. Name>  (881) 
Tyrosine-protein kinase JAK3

>  <Target Organism>  (881) 
Homo sapiens

>  <Target Type>  (881) 
SINGLE PROTEIN

>  <Document>  (881) 
CHEMBL1201862

>  <Source>  (881) 
PubChem BioAssays

>  <Max Phase>  (881) 
0

>  <#Ro5 Violations>  (881) 
0

>  <Molecular Weight>  (881) 
342.83

>  <Ligand Efficiency BEI>  (881) 
nan

>  <Ligand Efficiency LE>  (881) 
nan

>  <Ligand Efficiency LLE>  (881) 
nan

>  <Ligand Efficiency SEI>  (881) 
nan

>  <ALogP>  (881) 
3.36

>  <Assay Organism>  (881) 
nan

>  <Assay Tissue ChEMBL ID>  (881) 
nan

>  <Assay Tissue Name>  (881) 
nan

>  <Assay Cell Type>  (881) 
nan

>  <Assay Subcellular Fraction>  (881) 
nan

>  <Organism Tax ID>  (881) 
9606

>  <BAO Format ID>  (881) 
BAO_0000019

>  <Published Type>  (881) 
nan

>  <Published Relation>  (881) 
nan

>  <Published Value>  (881) 
nan

>  <Published Units>  (881) 
nan

>  <Canonical Smiles>  (881) 
NC1CCC(CC1)Nc2nc(Cl)cc(n2)c3c[nH]c4ncccc34

>  <Data Validity Comment>  (881) 
nan

>  <Document Journal>  (881) 
nan

>  <Document Year>  (881) 
nan

>  <SRC ID>  (881) 
7

>  <UO Units>  (881) 
UO_0000065

>  <Potential Duplicate>  (881) 
False

>  <Class>  (881) 
1

$$$$

     RDKit          2D

 27 29  0  0  0  0  0  0  0  0999 V2000
    0.4022   -7.7629    0.0000 N   0  0  0  0  0  0  0  0  0  0  0  0
    0.2454   -6.2711    0.0000 C   0  0  0  0  0  0  0  0  0  0  0  0
    1.3601   -5.2674    0.0000 N   0  0  0  0  0  0  0  0  0  0  0  0
    0.7500   -3.8971    0.0000 C   0  0  0  0  0  0  0  0  0  0  0  0
    1.5000   -2.5981    0.0000 N   0  0  0  0  0  0  0  0  0  0  0  0
    0.7500   -1.2990    0.0000 C   0  0  0  0  0  0  0  0  0  0  0  0
    1.5000    0.0000    0.0000 C   0  0  0  0  0  0  0  0  0  0  0  0
    0.7500    1.2990    0.0000 C   0  0  0  0  0  0  0  0  0  0  0  0
   -0.7500    1.2990    0.0000 C   0  0  0  0  0  0  0  0  0  0  0  0
   -1.5000    0.0000    0.0000 C   0  0  0  0  0  0  0  0  0  0  0  0
   -0.7500   -1.2990    0.0000 C   0  0  0  0  0  0  0  0  0  0  0  0
   -1.5000    2.5981    0.0000 S   0  0  0  0  0  0  0  0  0  0  0  0
   -0.2010    3.3481    0.0000 O   0  0  0  0  0  0  0  0  0  0  0  0
   -2.7990    1.8481    0.0000 O   0  0  0  0  0  0  0  0  0  0  0  0
   -2.2500    3.8971    0.0000 N   0  0  0  0  0  0  0  0  0  0  0  0
   -0.7418   -4.0539    0.0000 N   0  0  0  0  0  0  0  0  0  0  0  0
   -1.0537   -5.5211    0.0000 N   0  0  0  0  0  0  0  0  0  0  0  0
   -2.4240   -6.1312    0.0000 C   0  0  0  0  0  0  0  0  0  0  0  0
   -2.5808   -7.6230    0.0000 O   0  0  0  0  0  0  0  0  0  0  0  0
   -3.6375   -5.2496    0.0000 C   0  0  0  0  0  0  0  0  0  0  0  0
   -3.4807   -3.7578    0.0000 C   0  0  0  0  0  0  0  0  0  0  0  0
   -2.1104   -3.1477    0.0000 F   0  0  0  0  0  0  0  0  0  0  0  0
   -4.6942   -2.8761    0.0000 C   0  0  0  0  0  0  0  0  0  0  0  0
   -6.0645   -3.4862    0.0000 C   0  0  0  0  0  0  0  0  0  0  0  0
   -6.2213   -4.9780    0.0000 C   0  0  0  0  0  0  0  0  0  0  0  0
   -5.0078   -5.8597    0.0000 C   0  0  0  0  0  0  0  0  0  0  0  0
   -5.1646   -7.3514    0.0000 F   0  0  0  0  0  0  0  0  0  0  0  0
  1  2  1  0
  2  3  2  0
  3  4  1  0
  4  5  1  0
  5  6  1  0
  6  7  2  0
  7  8  1  0
  8  9  2  0
  9 10  1  0
 10 11  2  0
  9 12  1  0
 12 13  2  0
 12 14  2  0
 12 15  1  0
  4 16  2  0
 16 17  1  0
 17 18  1  0
 18 19  2  0
 18 20  1  0
 20 21  2  0
 21 22  1  0
 21 23  1  0
 23 24  2  0
 24 25  1  0
 25 26  2  0
 26 27  1  0
 17  2  1  0
 11  6  1  0
 26 20  1  0
M  END
>  <Molecule>  (882) 
CHEMBL191003

>  <Standard Type>  (882) 
Ki

>  <Standard Relation>  (882) 
=

>  <Standard Value>  (882) 
199.53

>  <Standard Units>  (882) 
nM

>  <pChEMBL Value>  (882) 
6.7

>  <Comment>  (882) 
active

>  <Compound Key>  (882) 
SID103905616

>  <Assay>  (882) 
CHEMBL1963742

>  <Assay Description>  (882) 
PUBCHEM_BIOASSAY: Navigating the Kinome. (Class of assay: other) Panel member name: JAK3

>  <BAO Format>  (882) 
assay format

>  <Target>  (882) 
CHEMBL2148

>  <Target Pref. Name>  (882) 
Tyrosine-protein kinase JAK3

>  <Target Organism>  (882) 
Homo sapiens

>  <Target Type>  (882) 
SINGLE PROTEIN

>  <Document>  (882) 
CHEMBL1201862

>  <Source>  (882) 
PubChem BioAssays

>  <Max Phase>  (882) 
0

>  <#Ro5 Violations>  (882) 
0

>  <Molecular Weight>  (882) 
394.36

>  <Ligand Efficiency BEI>  (882) 
nan

>  <Ligand Efficiency LE>  (882) 
nan

>  <Ligand Efficiency LLE>  (882) 
nan

>  <Ligand Efficiency SEI>  (882) 
nan

>  <ALogP>  (882) 
1.22

>  <Assay Organism>  (882) 
nan

>  <Assay Tissue ChEMBL ID>  (882) 
nan

>  <Assay Tissue Name>  (882) 
nan

>  <Assay Cell Type>  (882) 
nan

>  <Assay Subcellular Fraction>  (882) 
nan

>  <Organism Tax ID>  (882) 
9606

>  <BAO Format ID>  (882) 
BAO_0000019

>  <Published Type>  (882) 
nan

>  <Published Relation>  (882) 
nan

>  <Published Value>  (882) 
nan

>  <Published Units>  (882) 
nan

>  <Canonical Smiles>  (882) 
Nc1nc(Nc2ccc(cc2)S(=O)(=O)N)nn1C(=O)c3c(F)cccc3F

>  <Data Validity Comment>  (882) 
nan

>  <Document Journal>  (882) 
nan

>  <Document Year>  (882) 
nan

>  <SRC ID>  (882) 
7

>  <UO Units>  (882) 
UO_0000065

>  <Potential Duplicate>  (882) 
False

>  <Class>  (882) 
1

$$$$

     RDKit          2D

 23 26  0  0  0  0  0  0  0  0999 V2000
   -2.6401   -3.1891    0.0000 N   0  0  0  0  0  0  0  0  0  0  0  0
   -1.2135   -2.7256    0.0000 C   0  0  0  0  0  0  0  0  0  0  0  0
   -0.0000   -3.6073    0.0000 N   0  0  0  0  0  0  0  0  0  0  0  0
    1.2135   -2.7256    0.0000 N   0  0  0  0  0  0  0  0  0  0  0  0
    0.7500   -1.2990    0.0000 C   0  0  0  0  0  0  0  0  0  0  0  0
    1.5000    0.0000    0.0000 C   0  0  0  0  0  0  0  0  0  0  0  0
    0.7500    1.2990    0.0000 C   0  0  0  0  0  0  0  0  0  0  0  0
   -0.7500    1.2990    0.0000 C   0  0  0  0  0  0  0  0  0  0  0  0
   -1.5000    0.0000    0.0000 C   0  0  0  0  0  0  0  0  0  0  0  0
   -0.7500   -1.2990    0.0000 C   0  0  0  0  0  0  0  0  0  0  0  0
   -1.5000    2.5981    0.0000 C   0  0  0  0  0  0  0  0  0  0  0  0
   -2.9918    2.7549    0.0000 N   0  0  0  0  0  0  0  0  0  0  0  0
   -3.3037    4.2221    0.0000 N   0  0  0  0  0  0  0  0  0  0  0  0
   -2.0046    4.9721    0.0000 N   0  0  0  0  0  0  0  0  0  0  0  0
   -1.8478    6.4639    0.0000 C   0  0  0  0  0  0  0  0  0  0  0  0
   -0.4775    7.0740    0.0000 C   0  0  0  0  0  0  0  0  0  0  0  0
    0.7360    6.1923    0.0000 C   0  0  0  0  0  0  0  0  0  0  0  0
    2.1063    6.8024    0.0000 C   0  0  0  0  0  0  0  0  0  0  0  0
    2.2631    8.2942    0.0000 C   0  0  0  0  0  0  0  0  0  0  0  0
    1.0496    9.1759    0.0000 C   0  0  0  0  0  0  0  0  0  0  0  0
   -0.3207    8.5658    0.0000 C   0  0  0  0  0  0  0  0  0  0  0  0
   -0.8899    3.9684    0.0000 C   0  0  0  0  0  0  0  0  0  0  0  0
    0.5773    4.2803    0.0000 I   0  0  0  0  0  0  0  0  0  0  0  0
  1  2  1  0
  2  3  2  0
  3  4  1  0
  4  5  1  0
  5  6  2  0
  6  7  1  0
  7  8  2  0
  8  9  1  0
  9 10  2  0
  8 11  1  0
 11 12  1  0
 12 13  2  0
 13 14  1  0
 14 15  1  0
 15 16  1  0
 16 17  2  0
 17 18  1  0
 18 19  2  0
 19 20  1  0
 20 21  2  0
 14 22  1  0
 22 23  1  0
 10  2  1  0
 10  5  1  0
 22 11  2  0
 21 16  1  0
M  END
>  <Molecule>  (883) 
CHEMBL1975128

>  <Standard Type>  (883) 
Ki

>  <Standard Relation>  (883) 
=

>  <Standard Value>  (883) 
316.23

>  <Standard Units>  (883) 
nM

>  <pChEMBL Value>  (883) 
6.5

>  <Comment>  (883) 
active

>  <Compound Key>  (883) 
SID103904465

>  <Assay>  (883) 
CHEMBL1963742

>  <Assay Description>  (883) 
PUBCHEM_BIOASSAY: Navigating the Kinome. (Class of assay: other) Panel member name: JAK3

>  <BAO Format>  (883) 
assay format

>  <Target>  (883) 
CHEMBL2148

>  <Target Pref. Name>  (883) 
Tyrosine-protein kinase JAK3

>  <Target Organism>  (883) 
Homo sapiens

>  <Target Type>  (883) 
SINGLE PROTEIN

>  <Document>  (883) 
CHEMBL1201862

>  <Source>  (883) 
PubChem BioAssays

>  <Max Phase>  (883) 
0

>  <#Ro5 Violations>  (883) 
0

>  <Molecular Weight>  (883) 
416.23

>  <Ligand Efficiency BEI>  (883) 
nan

>  <Ligand Efficiency LE>  (883) 
nan

>  <Ligand Efficiency LLE>  (883) 
nan

>  <Ligand Efficiency SEI>  (883) 
nan

>  <ALogP>  (883) 
3.06

>  <Assay Organism>  (883) 
nan

>  <Assay Tissue ChEMBL ID>  (883) 
nan

>  <Assay Tissue Name>  (883) 
nan

>  <Assay Cell Type>  (883) 
nan

>  <Assay Subcellular Fraction>  (883) 
nan

>  <Organism Tax ID>  (883) 
9606

>  <BAO Format ID>  (883) 
BAO_0000019

>  <Published Type>  (883) 
nan

>  <Published Relation>  (883) 
nan

>  <Published Value>  (883) 
nan

>  <Published Units>  (883) 
nan

>  <Canonical Smiles>  (883) 
Nc1n[nH]c2ccc(cc12)c3nnn(Cc4ccccc4)c3I

>  <Data Validity Comment>  (883) 
nan

>  <Document Journal>  (883) 
nan

>  <Document Year>  (883) 
nan

>  <SRC ID>  (883) 
7

>  <UO Units>  (883) 
UO_0000065

>  <Potential Duplicate>  (883) 
False

>  <Class>  (883) 
1

$$$$

     RDKit          2D

 25 28  0  0  0  0  0  0  0  0999 V2000
    3.0000    0.0000    0.0000 Cl  0  0  0  0  0  0  0  0  0  0  0  0
    1.5000    0.0000    0.0000 C   0  0  0  0  0  0  0  0  0  0  0  0
    0.7500   -1.2990    0.0000 C   0  0  0  0  0  0  0  0  0  0  0  0
   -0.7500   -1.2990    0.0000 C   0  0  0  0  0  0  0  0  0  0  0  0
   -1.5000    0.0000    0.0000 C   0  0  0  0  0  0  0  0  0  0  0  0
   -0.7500    1.2990    0.0000 C   0  0  0  0  0  0  0  0  0  0  0  0
   -1.5000    2.5981    0.0000 N   0  0  0  0  0  0  0  0  0  0  0  0
   -0.7500    3.8971    0.0000 C   0  0  0  0  0  0  0  0  0  0  0  0
    0.7500    3.8971    0.0000 N   0  0  0  0  0  0  0  0  0  0  0  0
    1.5000    5.1962    0.0000 C   0  0  0  0  0  0  0  0  0  0  0  0
    0.7500    6.4952    0.0000 N   0  0  0  0  0  0  0  0  0  0  0  0
   -0.7500    6.4952    0.0000 C   0  0  0  0  0  0  0  0  0  0  0  0
   -1.5000    5.1962    0.0000 N   0  0  0  0  0  0  0  0  0  0  0  0
   -1.5000    7.7942    0.0000 N   0  0  0  0  0  0  0  0  0  0  0  0
   -2.9918    7.9510    0.0000 C   0  0  0  0  0  0  0  0  0  0  0  0
   -3.3037    9.4182    0.0000 C   0  0  0  0  0  0  0  0  0  0  0  0
   -2.0046   10.1682    0.0000 C   0  0  0  0  0  0  0  0  0  0  0  0
   -0.8899    9.1645    0.0000 N   0  0  0  0  0  0  0  0  0  0  0  0
    3.0000    5.1962    0.0000 N   0  0  0  0  0  0  0  0  0  0  0  0
    3.7500    3.8971    0.0000 C   0  0  0  0  0  0  0  0  0  0  0  0
    5.2500    3.8971    0.0000 C   0  0  0  0  0  0  0  0  0  0  0  0
    6.0000    5.1962    0.0000 O   0  0  0  0  0  0  0  0  0  0  0  0
    5.2500    6.4952    0.0000 C   0  0  0  0  0  0  0  0  0  0  0  0
    3.7500    6.4952    0.0000 C   0  0  0  0  0  0  0  0  0  0  0  0
    0.7500    1.2990    0.0000 C   0  0  0  0  0  0  0  0  0  0  0  0
  1  2  1  0
  2  3  2  0
  3  4  1  0
  4  5  2  0
  5  6  1  0
  6  7  1  0
  7  8  1  0
  8  9  2  0
  9 10  1  0
 10 11  2  0
 11 12  1  0
 12 13  2  0
 12 14  1  0
 14 15  1  0
 15 16  2  0
 16 17  1  0
 17 18  2  0
 10 19  1  0
 19 20  1  0
 20 21  1  0
 21 22  1  0
 22 23  1  0
 23 24  1  0
  6 25  2  0
 25  2  1  0
 13  8  1  0
 18 14  1  0
 24 19  1  0
M  END
>  <Molecule>  (884) 
CHEMBL1940137

>  <Standard Type>  (884) 
Ki

>  <Standard Relation>  (884) 
=

>  <Standard Value>  (884) 
3162.28

>  <Standard Units>  (884) 
nM

>  <pChEMBL Value>  (884) 
5.5

>  <Comment>  (884) 
active

>  <Compound Key>  (884) 
SID103905646

>  <Assay>  (884) 
CHEMBL1963742

>  <Assay Description>  (884) 
PUBCHEM_BIOASSAY: Navigating the Kinome. (Class of assay: other) Panel member name: JAK3

>  <BAO Format>  (884) 
assay format

>  <Target>  (884) 
CHEMBL2148

>  <Target Pref. Name>  (884) 
Tyrosine-protein kinase JAK3

>  <Target Organism>  (884) 
Homo sapiens

>  <Target Type>  (884) 
SINGLE PROTEIN

>  <Document>  (884) 
CHEMBL1201862

>  <Source>  (884) 
PubChem BioAssays

>  <Max Phase>  (884) 
0

>  <#Ro5 Violations>  (884) 
0

>  <Molecular Weight>  (884) 
357.81

>  <Ligand Efficiency BEI>  (884) 
nan

>  <Ligand Efficiency LE>  (884) 
nan

>  <Ligand Efficiency LLE>  (884) 
nan

>  <Ligand Efficiency SEI>  (884) 
nan

>  <ALogP>  (884) 
2.29

>  <Assay Organism>  (884) 
nan

>  <Assay Tissue ChEMBL ID>  (884) 
nan

>  <Assay Tissue Name>  (884) 
nan

>  <Assay Cell Type>  (884) 
nan

>  <Assay Subcellular Fraction>  (884) 
nan

>  <Organism Tax ID>  (884) 
9606

>  <BAO Format ID>  (884) 
BAO_0000019

>  <Published Type>  (884) 
nan

>  <Published Relation>  (884) 
nan

>  <Published Value>  (884) 
nan

>  <Published Units>  (884) 
nan

>  <Canonical Smiles>  (884) 
Clc1cccc(Nc2nc(nc(n2)n3cccn3)N4CCOCC4)c1

>  <Data Validity Comment>  (884) 
nan

>  <Document Journal>  (884) 
nan

>  <Document Year>  (884) 
nan

>  <SRC ID>  (884) 
7

>  <UO Units>  (884) 
UO_0000065

>  <Potential Duplicate>  (884) 
False

>  <Class>  (884) 
1

$$$$

     RDKit          2D

 24 27  0  0  0  0  0  0  0  0999 V2000
   -5.0487    4.2236    0.0000 O   0  0  0  0  0  0  0  0  0  0  0  0
   -5.3605    2.7564    0.0000 C   0  0  0  0  0  0  0  0  0  0  0  0
   -4.2458    1.7527    0.0000 C   0  0  0  0  0  0  0  0  0  0  0  0
   -4.5577    0.2855    0.0000 C   0  0  0  0  0  0  0  0  0  0  0  0
   -5.9843   -0.1781    0.0000 C   0  0  0  0  0  0  0  0  0  0  0  0
   -7.0990    0.8256    0.0000 C   0  0  0  0  0  0  0  0  0  0  0  0
   -6.7871    2.2929    0.0000 C   0  0  0  0  0  0  0  0  0  0  0  0
   -6.2961   -1.6453    0.0000 N   0  0  0  0  0  0  0  0  0  0  0  0
   -5.1814   -2.6490    0.0000 C   0  0  0  0  0  0  0  0  0  0  0  0
   -5.4933   -4.1162    0.0000 N   0  0  0  0  0  0  0  0  0  0  0  0
   -4.3786   -5.1199    0.0000 C   0  0  0  0  0  0  0  0  0  0  0  0
   -4.6904   -6.5871    0.0000 Cl  0  0  0  0  0  0  0  0  0  0  0  0
   -2.9520   -4.6564    0.0000 C   0  0  0  0  0  0  0  0  0  0  0  0
   -2.6401   -3.1891    0.0000 C   0  0  0  0  0  0  0  0  0  0  0  0
   -3.7548   -2.1855    0.0000 N   0  0  0  0  0  0  0  0  0  0  0  0
   -1.2135   -2.7256    0.0000 C   0  0  0  0  0  0  0  0  0  0  0  0
    0.0000   -3.6073    0.0000 C   0  0  0  0  0  0  0  0  0  0  0  0
    1.2135   -2.7256    0.0000 N   0  0  0  0  0  0  0  0  0  0  0  0
    0.7500   -1.2990    0.0000 C   0  0  0  0  0  0  0  0  0  0  0  0
    1.5000    0.0000    0.0000 N   0  0  0  0  0  0  0  0  0  0  0  0
    0.7500    1.2990    0.0000 C   0  0  0  0  0  0  0  0  0  0  0  0
   -0.7500    1.2990    0.0000 C   0  0  0  0  0  0  0  0  0  0  0  0
   -1.5000    0.0000    0.0000 C   0  0  0  0  0  0  0  0  0  0  0  0
   -0.7500   -1.2990    0.0000 C   0  0  0  0  0  0  0  0  0  0  0  0
  1  2  1  0
  2  3  1  0
  3  4  1  0
  4  5  1  0
  5  6  1  0
  6  7  1  0
  5  8  1  0
  8  9  1  0
  9 10  2  0
 10 11  1  0
 11 12  1  0
 11 13  2  0
 13 14  1  0
 14 15  2  0
 14 16  1  0
 16 17  2  0
 17 18  1  0
 18 19  1  0
 19 20  2  0
 20 21  1  0
 21 22  2  0
 22 23  1  0
 23 24  2  0
  7  2  1  0
 15  9  1  0
 24 16  1  0
 24 19  1  0
M  END
>  <Molecule>  (885) 
CHEMBL1986943

>  <Standard Type>  (885) 
Ki

>  <Standard Relation>  (885) 
=

>  <Standard Value>  (885) 
50.12

>  <Standard Units>  (885) 
nM

>  <pChEMBL Value>  (885) 
7.3

>  <Comment>  (885) 
active

>  <Compound Key>  (885) 
SID103904189

>  <Assay>  (885) 
CHEMBL1963742

>  <Assay Description>  (885) 
PUBCHEM_BIOASSAY: Navigating the Kinome. (Class of assay: other) Panel member name: JAK3

>  <BAO Format>  (885) 
assay format

>  <Target>  (885) 
CHEMBL2148

>  <Target Pref. Name>  (885) 
Tyrosine-protein kinase JAK3

>  <Target Organism>  (885) 
Homo sapiens

>  <Target Type>  (885) 
SINGLE PROTEIN

>  <Document>  (885) 
CHEMBL1201862

>  <Source>  (885) 
PubChem BioAssays

>  <Max Phase>  (885) 
0

>  <#Ro5 Violations>  (885) 
0

>  <Molecular Weight>  (885) 
343.82

>  <Ligand Efficiency BEI>  (885) 
nan

>  <Ligand Efficiency LE>  (885) 
nan

>  <Ligand Efficiency LLE>  (885) 
nan

>  <Ligand Efficiency SEI>  (885) 
nan

>  <ALogP>  (885) 
3.39

>  <Assay Organism>  (885) 
nan

>  <Assay Tissue ChEMBL ID>  (885) 
nan

>  <Assay Tissue Name>  (885) 
nan

>  <Assay Cell Type>  (885) 
nan

>  <Assay Subcellular Fraction>  (885) 
nan

>  <Organism Tax ID>  (885) 
9606

>  <BAO Format ID>  (885) 
BAO_0000019

>  <Published Type>  (885) 
nan

>  <Published Relation>  (885) 
nan

>  <Published Value>  (885) 
nan

>  <Published Units>  (885) 
nan

>  <Canonical Smiles>  (885) 
OC1CCC(CC1)Nc2nc(Cl)cc(n2)c3c[nH]c4ncccc34

>  <Data Validity Comment>  (885) 
nan

>  <Document Journal>  (885) 
nan

>  <Document Year>  (885) 
nan

>  <SRC ID>  (885) 
7

>  <UO Units>  (885) 
UO_0000065

>  <Potential Duplicate>  (885) 
False

>  <Class>  (885) 
1

$$$$

     RDKit          2D

 27 30  0  0  0  0  0  0  0  0999 V2000
    3.7500   -1.2990    0.0000 C   0  0  0  0  0  0  0  0  0  0  0  0
    3.0000    0.0000    0.0000 S   0  0  0  0  0  0  0  0  0  0  0  0
    3.7500    1.2990    0.0000 O   0  0  0  0  0  0  0  0  0  0  0  0
    1.5000    0.0000    0.0000 C   0  0  0  0  0  0  0  0  0  0  0  0
    0.7500   -1.2990    0.0000 C   0  0  0  0  0  0  0  0  0  0  0  0
   -0.7500   -1.2990    0.0000 C   0  0  0  0  0  0  0  0  0  0  0  0
   -1.5000    0.0000    0.0000 C   0  0  0  0  0  0  0  0  0  0  0  0
   -0.7500    1.2990    0.0000 C   0  0  0  0  0  0  0  0  0  0  0  0
    0.7500    1.2990    0.0000 C   0  0  0  0  0  0  0  0  0  0  0  0
   -3.0000    0.0000    0.0000 C   0  0  0  0  0  0  0  0  0  0  0  0
   -3.8817   -1.2135    0.0000 N   0  0  0  0  0  0  0  0  0  0  0  0
   -5.3083   -0.7500    0.0000 C   0  0  0  0  0  0  0  0  0  0  0  0
   -6.5218   -1.6317    0.0000 C   0  0  0  0  0  0  0  0  0  0  0  0
   -7.8921   -1.0216    0.0000 C   0  0  0  0  0  0  0  0  0  0  0  0
   -9.1056   -1.9033    0.0000 C   0  0  0  0  0  0  0  0  0  0  0  0
   -8.9488   -3.3950    0.0000 C   0  0  0  0  0  0  0  0  0  0  0  0
  -10.1624   -4.2767    0.0000 F   0  0  0  0  0  0  0  0  0  0  0  0
   -7.5785   -4.0051    0.0000 C   0  0  0  0  0  0  0  0  0  0  0  0
   -6.3650   -3.1235    0.0000 C   0  0  0  0  0  0  0  0  0  0  0  0
   -5.3083    0.7500    0.0000 C   0  0  0  0  0  0  0  0  0  0  0  0
   -3.8817    1.2135    0.0000 N   0  0  0  0  0  0  0  0  0  0  0  0
   -6.5218    1.6317    0.0000 C   0  0  0  0  0  0  0  0  0  0  0  0
   -6.3650    3.1235    0.0000 C   0  0  0  0  0  0  0  0  0  0  0  0
   -7.5785    4.0051    0.0000 C   0  0  0  0  0  0  0  0  0  0  0  0
   -8.9488    3.3950    0.0000 N   0  0  0  0  0  0  0  0  0  0  0  0
   -9.1056    1.9033    0.0000 C   0  0  0  0  0  0  0  0  0  0  0  0
   -7.8921    1.0216    0.0000 C   0  0  0  0  0  0  0  0  0  0  0  0
  1  2  1  0
  2  3  1  0
  2  4  1  0
  4  5  2  0
  5  6  1  0
  6  7  2  0
  7  8  1  0
  8  9  2  0
  7 10  1  0
 10 11  2  0
 11 12  1  0
 12 13  1  0
 13 14  2  0
 14 15  1  0
 15 16  2  0
 16 17  1  0
 16 18  1  0
 18 19  2  0
 12 20  2  0
 20 21  1  0
 20 22  1  0
 22 23  2  0
 23 24  1  0
 24 25  2  0
 25 26  1  0
 26 27  2  0
  9  4  1  0
 21 10  1  0
 19 13  1  0
 27 22  1  0
M  CHG  2   2   1   3  -1
M  END
>  <Molecule>  (886) 
CHEMBL10

>  <Standard Type>  (886) 
Ki

>  <Standard Relation>  (886) 
>

>  <Standard Value>  (886) 
5011.87

>  <Standard Units>  (886) 
nM

>  <pChEMBL Value>  (886) 
nan

>  <Comment>  (886) 
inactive

>  <Compound Key>  (886) 
SB-203580

>  <Assay>  (886) 
CHEMBL1963742

>  <Assay Description>  (886) 
PUBCHEM_BIOASSAY: Navigating the Kinome. (Class of assay: other) Panel member name: JAK3

>  <BAO Format>  (886) 
assay format

>  <Target>  (886) 
CHEMBL2148

>  <Target Pref. Name>  (886) 
Tyrosine-protein kinase JAK3

>  <Target Organism>  (886) 
Homo sapiens

>  <Target Type>  (886) 
SINGLE PROTEIN

>  <Document>  (886) 
CHEMBL1201862

>  <Source>  (886) 
PubChem BioAssays

>  <Max Phase>  (886) 
0

>  <#Ro5 Violations>  (886) 
0

>  <Molecular Weight>  (886) 
377.44

>  <Ligand Efficiency BEI>  (886) 
nan

>  <Ligand Efficiency LE>  (886) 
nan

>  <Ligand Efficiency LLE>  (886) 
nan

>  <Ligand Efficiency SEI>  (886) 
nan

>  <ALogP>  (886) 
4.68

>  <Assay Organism>  (886) 
nan

>  <Assay Tissue ChEMBL ID>  (886) 
nan

>  <Assay Tissue Name>  (886) 
nan

>  <Assay Cell Type>  (886) 
nan

>  <Assay Subcellular Fraction>  (886) 
nan

>  <Organism Tax ID>  (886) 
9606

>  <BAO Format ID>  (886) 
BAO_0000019

>  <Published Type>  (886) 
nan

>  <Published Relation>  (886) 
nan

>  <Published Value>  (886) 
nan

>  <Published Units>  (886) 
nan

>  <Canonical Smiles>  (886) 
C[S+]([O-])c1ccc(cc1)c2nc(c3ccc(F)cc3)c([nH]2)c4ccncc4

>  <Data Validity Comment>  (886) 
nan

>  <Document Journal>  (886) 
nan

>  <Document Year>  (886) 
nan

>  <SRC ID>  (886) 
7

>  <UO Units>  (886) 
UO_0000065

>  <Potential Duplicate>  (886) 
False

>  <Class>  (886) 
0

$$$$

     RDKit          2D

 37 41  0  0  0  0  0  0  0  0999 V2000
    3.8971   -6.8350    0.0000 C   0  0  0  0  0  0  0  0  0  0  0  0
    2.5981   -6.0850    0.0000 O   0  0  0  0  0  0  0  0  0  0  0  0
    1.2990   -6.8350    0.0000 C   0  0  0  0  0  0  0  0  0  0  0  0
    1.2990   -8.3350    0.0000 C   0  0  0  0  0  0  0  0  0  0  0  0
    0.0000   -9.0850    0.0000 C   0  0  0  0  0  0  0  0  0  0  0  0
   -1.2990   -8.3350    0.0000 C   0  0  0  0  0  0  0  0  0  0  0  0
   -1.2990   -6.8350    0.0000 C   0  0  0  0  0  0  0  0  0  0  0  0
   -2.5981   -6.0850    0.0000 F   0  0  0  0  0  0  0  0  0  0  0  0
    0.0000   -6.0850    0.0000 C   0  0  0  0  0  0  0  0  0  0  0  0
    0.0000   -4.5850    0.0000 C   0  0  0  0  0  0  0  0  0  0  0  0
    1.3515   -3.9342    0.0000 N   0  0  0  0  0  0  0  0  0  0  0  0
    1.6852   -2.4718    0.0000 C   0  0  0  0  0  0  0  0  0  0  0  0
    0.7500   -1.2990    0.0000 C   0  0  0  0  0  0  0  0  0  0  0  0
    1.5000    0.0000    0.0000 C   0  0  0  0  0  0  0  0  0  0  0  0
    0.7500    1.2990    0.0000 N   0  0  0  0  0  0  0  0  0  0  0  0
   -0.7500    1.2990    0.0000 C   0  0  0  0  0  0  0  0  0  0  0  0
   -1.5000    2.5981    0.0000 N   0  0  0  0  0  0  0  0  0  0  0  0
   -0.7500    3.8971    0.0000 C   0  0  0  0  0  0  0  0  0  0  0  0
    0.7500    3.8971    0.0000 C   0  0  0  0  0  0  0  0  0  0  0  0
    1.5000    5.1962    0.0000 C   0  0  0  0  0  0  0  0  0  0  0  0
    0.7500    6.4952    0.0000 C   0  0  0  0  0  0  0  0  0  0  0  0
    1.5000    7.7942    0.0000 C   0  0  0  0  0  0  0  0  0  0  0  0
    0.7500    9.0933    0.0000 O   0  0  0  0  0  0  0  0  0  0  0  0
    3.0000    7.7942    0.0000 O   0  0  0  0  0  0  0  0  0  0  0  0
   -0.7500    6.4952    0.0000 C   0  0  0  0  0  0  0  0  0  0  0  0
   -1.5000    7.7942    0.0000 O   0  0  0  0  0  0  0  0  0  0  0  0
   -3.0000    7.7942    0.0000 C   0  0  0  0  0  0  0  0  0  0  0  0
   -1.5000    5.1962    0.0000 C   0  0  0  0  0  0  0  0  0  0  0  0
   -1.5000    0.0000    0.0000 N   0  0  0  0  0  0  0  0  0  0  0  0
   -0.7500   -1.2990    0.0000 C   0  0  0  0  0  0  0  0  0  0  0  0
   -1.6852   -2.4718    0.0000 C   0  0  0  0  0  0  0  0  0  0  0  0
   -3.1186   -2.0297    0.0000 C   0  0  0  0  0  0  0  0  0  0  0  0
   -4.2182   -3.0499    0.0000 C   0  0  0  0  0  0  0  0  0  0  0  0
   -3.8844   -4.5123    0.0000 C   0  0  0  0  0  0  0  0  0  0  0  0
   -4.9840   -5.5326    0.0000 Cl  0  0  0  0  0  0  0  0  0  0  0  0
   -2.4510   -4.9544    0.0000 C   0  0  0  0  0  0  0  0  0  0  0  0
   -1.3515   -3.9342    0.0000 C   0  0  0  0  0  0  0  0  0  0  0  0
  1  2  1  0
  2  3  1  0
  3  4  2  0
  4  5  1  0
  5  6  2  0
  6  7  1  0
  7  8  1  0
  7  9  2  0
  9 10  1  0
 10 11  2  0
 11 12  1  0
 12 13  1  0
 13 14  2  0
 14 15  1  0
 15 16  2  0
 16 17  1  0
 17 18  1  0
 18 19  2  0
 19 20  1  0
 20 21  2  0
 21 22  1  0
 22 23  2  0
 22 24  1  0
 21 25  1  0
 25 26  1  0
 26 27  1  0
 25 28  2  0
 16 29  1  0
 29 30  2  0
 30 31  1  0
 31 32  2  0
 32 33  1  0
 33 34  2  0
 34 35  1  0
 34 36  1  0
 36 37  2  0
  9  3  1  0
 37 10  1  0
 30 13  1  0
 28 18  1  0
 37 31  1  0
M  END
>  <Molecule>  (887) 
CHEMBL483158

>  <Standard Type>  (887) 
Ki

>  <Standard Relation>  (887) 
>

>  <Standard Value>  (887) 
3981.07

>  <Standard Units>  (887) 
nM

>  <pChEMBL Value>  (887) 
nan

>  <Comment>  (887) 
inactive

>  <Compound Key>  (887) 
SID103905632

>  <Assay>  (887) 
CHEMBL1963742

>  <Assay Description>  (887) 
PUBCHEM_BIOASSAY: Navigating the Kinome. (Class of assay: other) Panel member name: JAK3

>  <BAO Format>  (887) 
assay format

>  <Target>  (887) 
CHEMBL2148

>  <Target Pref. Name>  (887) 
Tyrosine-protein kinase JAK3

>  <Target Organism>  (887) 
Homo sapiens

>  <Target Type>  (887) 
SINGLE PROTEIN

>  <Document>  (887) 
CHEMBL1201862

>  <Source>  (887) 
PubChem BioAssays

>  <Max Phase>  (887) 
3

>  <#Ro5 Violations>  (887) 
2

>  <Molecular Weight>  (887) 
518.93

>  <Ligand Efficiency BEI>  (887) 
nan

>  <Ligand Efficiency LE>  (887) 
nan

>  <Ligand Efficiency LLE>  (887) 
nan

>  <Ligand Efficiency SEI>  (887) 
nan

>  <ALogP>  (887) 
5.75

>  <Assay Organism>  (887) 
nan

>  <Assay Tissue ChEMBL ID>  (887) 
nan

>  <Assay Tissue Name>  (887) 
nan

>  <Assay Cell Type>  (887) 
nan

>  <Assay Subcellular Fraction>  (887) 
nan

>  <Organism Tax ID>  (887) 
9606

>  <BAO Format ID>  (887) 
BAO_0000019

>  <Published Type>  (887) 
nan

>  <Published Relation>  (887) 
nan

>  <Published Value>  (887) 
nan

>  <Published Units>  (887) 
nan

>  <Canonical Smiles>  (887) 
COc1cccc(F)c1C2=NCc3cnc(Nc4ccc(C(=O)O)c(OC)c4)nc3c5ccc(Cl)cc25

>  <Data Validity Comment>  (887) 
nan

>  <Document Journal>  (887) 
nan

>  <Document Year>  (887) 
nan

>  <SRC ID>  (887) 
7

>  <UO Units>  (887) 
UO_0000065

>  <Potential Duplicate>  (887) 
False

>  <Class>  (887) 
0

$$$$

     RDKit          2D

 38 41  0  0  0  0  0  0  0  0999 V2000
    8.0406   12.1352    0.0000 C   0  0  0  0  0  0  0  0  0  0  0  0
    7.5771   10.7086    0.0000 C   0  0  0  0  0  0  0  0  0  0  0  0
    8.5808    9.5939    0.0000 C   0  0  0  0  0  0  0  0  0  0  0  0
    8.1173    8.1673    0.0000 C   0  0  0  0  0  0  0  0  0  0  0  0
    6.6501    7.8555    0.0000 C   0  0  0  0  0  0  0  0  0  0  0  0
    5.6464    8.9702    0.0000 C   0  0  0  0  0  0  0  0  0  0  0  0
    4.1791    8.6583    0.0000 N   0  0  0  0  0  0  0  0  0  0  0  0
    3.7156    7.2317    0.0000 C   0  0  0  0  0  0  0  0  0  0  0  0
    4.7193    6.1170    0.0000 O   0  0  0  0  0  0  0  0  0  0  0  0
    2.2484    6.9199    0.0000 N   0  0  0  0  0  0  0  0  0  0  0  0
    1.7849    5.4933    0.0000 C   0  0  0  0  0  0  0  0  0  0  0  0
    0.3177    5.1814    0.0000 C   0  0  0  0  0  0  0  0  0  0  0  0
   -0.1459    3.7548    0.0000 C   0  0  0  0  0  0  0  0  0  0  0  0
    0.8578    2.6401    0.0000 C   0  0  0  0  0  0  0  0  0  0  0  0
    2.3250    2.9520    0.0000 C   0  0  0  0  0  0  0  0  0  0  0  0
    2.7886    4.3786    0.0000 C   0  0  0  0  0  0  0  0  0  0  0  0
    0.3943    1.2135    0.0000 C   0  0  0  0  0  0  0  0  0  0  0  0
    1.2760    0.0000    0.0000 C   0  0  0  0  0  0  0  0  0  0  0  0
    0.3943   -1.2135    0.0000 S   0  0  0  0  0  0  0  0  0  0  0  0
   -1.0323   -0.7500    0.0000 C   0  0  0  0  0  0  0  0  0  0  0  0
   -2.3313   -1.5000    0.0000 C   0  0  0  0  0  0  0  0  0  0  0  0
   -3.6304   -0.7500    0.0000 C   0  0  0  0  0  0  0  0  0  0  0  0
   -3.6304    0.7500    0.0000 N   0  0  0  0  0  0  0  0  0  0  0  0
   -2.3313    1.5000    0.0000 C   0  0  0  0  0  0  0  0  0  0  0  0
   -2.3313    3.0000    0.0000 N   0  0  0  0  0  0  0  0  0  0  0  0
   -1.0323    0.7500    0.0000 C   0  0  0  0  0  0  0  0  0  0  0  0
   -2.3313   -3.0000    0.0000 C   0  0  0  0  0  0  0  0  0  0  0  0
   -2.3313   -4.5000    0.0000 C   0  0  0  0  0  0  0  0  0  0  0  0
   -2.3313   -6.0000    0.0000 C   0  0  0  0  0  0  0  0  0  0  0  0
   -3.6304   -6.7500    0.0000 C   0  0  0  0  0  0  0  0  0  0  0  0
   -3.6304   -8.2500    0.0000 C   0  0  0  0  0  0  0  0  0  0  0  0
   -4.9294   -9.0000    0.0000 C   0  0  0  0  0  0  0  0  0  0  0  0
   -4.9294  -10.5000    0.0000 C   0  0  0  0  0  0  0  0  0  0  0  0
   -6.2284  -11.2500    0.0000 C   0  0  0  0  0  0  0  0  0  0  0  0
   -6.2284  -12.7500    0.0000 C   0  0  0  0  0  0  0  0  0  0  0  0
   -7.5275  -13.5000    0.0000 C   0  0  0  0  0  0  0  0  0  0  0  0
   -7.5275  -15.0000    0.0000 N   0  0  0  0  0  0  0  0  0  0  0  0
    6.1099   10.3968    0.0000 C   0  0  0  0  0  0  0  0  0  0  0  0
  1  2  1  0
  2  3  2  0
  3  4  1  0
  4  5  2  0
  5  6  1  0
  6  7  1  0
  7  8  1  0
  8  9  2  0
  8 10  1  0
 10 11  1  0
 11 12  2  0
 12 13  1  0
 13 14  2  0
 14 15  1  0
 15 16  2  0
 14 17  1  0
 17 18  2  0
 18 19  1  0
 19 20  1  0
 20 21  2  0
 21 22  1  0
 22 23  2  0
 23 24  1  0
 24 25  1  0
 24 26  2  0
 21 27  1  0
 27 28  3  0
 28 29  1  0
 29 30  1  0
 30 31  1  0
 31 32  1  0
 32 33  1  0
 33 34  1  0
 34 35  1  0
 35 36  1  0
 36 37  1  0
  6 38  2  0
 38  2  1  0
 16 11  1  0
 26 17  1  0
 26 20  1  0
M  END
>  <Molecule>  (888) 
CHEMBL1978166

>  <Standard Type>  (888) 
Ki

>  <Standard Relation>  (888) 
=

>  <Standard Value>  (888) 
1584.89

>  <Standard Units>  (888) 
nM

>  <pChEMBL Value>  (888) 
5.8

>  <Comment>  (888) 
active

>  <Compound Key>  (888) 
SID103904325

>  <Assay>  (888) 
CHEMBL1963742

>  <Assay Description>  (888) 
PUBCHEM_BIOASSAY: Navigating the Kinome. (Class of assay: other) Panel member name: JAK3

>  <BAO Format>  (888) 
assay format

>  <Target>  (888) 
CHEMBL2148

>  <Target Pref. Name>  (888) 
Tyrosine-protein kinase JAK3

>  <Target Organism>  (888) 
Homo sapiens

>  <Target Type>  (888) 
SINGLE PROTEIN

>  <Document>  (888) 
CHEMBL1201862

>  <Source>  (888) 
PubChem BioAssays

>  <Max Phase>  (888) 
0

>  <#Ro5 Violations>  (888) 
2

>  <Molecular Weight>  (888) 
525.72

>  <Ligand Efficiency BEI>  (888) 
nan

>  <Ligand Efficiency LE>  (888) 
nan

>  <Ligand Efficiency LLE>  (888) 
nan

>  <Ligand Efficiency SEI>  (888) 
nan

>  <ALogP>  (888) 
7.54

>  <Assay Organism>  (888) 
nan

>  <Assay Tissue ChEMBL ID>  (888) 
nan

>  <Assay Tissue Name>  (888) 
nan

>  <Assay Cell Type>  (888) 
nan

>  <Assay Subcellular Fraction>  (888) 
nan

>  <Organism Tax ID>  (888) 
9606

>  <BAO Format ID>  (888) 
BAO_0000019

>  <Published Type>  (888) 
nan

>  <Published Relation>  (888) 
nan

>  <Published Value>  (888) 
nan

>  <Published Units>  (888) 
nan

>  <Canonical Smiles>  (888) 
Cc1cccc(NC(=O)Nc2ccc(cc2)c3csc4c(cnc(N)c34)C#CCCCCCCCCN)c1

>  <Data Validity Comment>  (888) 
nan

>  <Document Journal>  (888) 
nan

>  <Document Year>  (888) 
nan

>  <SRC ID>  (888) 
7

>  <UO Units>  (888) 
UO_0000065

>  <Potential Duplicate>  (888) 
False

>  <Class>  (888) 
1

$$$$

     RDKit          2D

 28 31  0  0  0  0  0  0  0  0999 V2000
    3.7500  -14.2894    0.0000 C   0  0  0  0  0  0  0  0  0  0  0  0
    3.0000  -12.9904    0.0000 C   0  0  0  0  0  0  0  0  0  0  0  0
    1.5000  -12.9904    0.0000 C   0  0  0  0  0  0  0  0  0  0  0  0
    0.7500  -11.6913    0.0000 C   0  0  0  0  0  0  0  0  0  0  0  0
    1.5000  -10.3923    0.0000 C   0  0  0  0  0  0  0  0  0  0  0  0
    3.0000  -10.3923    0.0000 C   0  0  0  0  0  0  0  0  0  0  0  0
    3.7500   -9.0933    0.0000 N   0  0  0  0  0  0  0  0  0  0  0  0
    3.0000   -7.7942    0.0000 C   0  0  0  0  0  0  0  0  0  0  0  0
    1.5000   -7.7942    0.0000 O   0  0  0  0  0  0  0  0  0  0  0  0
    3.7500   -6.4952    0.0000 N   0  0  0  0  0  0  0  0  0  0  0  0
    3.0000   -5.1962    0.0000 C   0  0  0  0  0  0  0  0  0  0  0  0
    3.7500   -3.8971    0.0000 C   0  0  0  0  0  0  0  0  0  0  0  0
    3.0000   -2.5981    0.0000 C   0  0  0  0  0  0  0  0  0  0  0  0
    1.5000   -2.5981    0.0000 C   0  0  0  0  0  0  0  0  0  0  0  0
    0.7500   -3.8971    0.0000 C   0  0  0  0  0  0  0  0  0  0  0  0
    1.5000   -5.1962    0.0000 C   0  0  0  0  0  0  0  0  0  0  0  0
    0.7500   -1.2990    0.0000 C   0  0  0  0  0  0  0  0  0  0  0  0
    1.5000    0.0000    0.0000 C   0  0  0  0  0  0  0  0  0  0  0  0
    0.7500    1.2990    0.0000 N   0  0  0  0  0  0  0  0  0  0  0  0
   -0.7500    1.2990    0.0000 C   0  0  0  0  0  0  0  0  0  0  0  0
   -1.5000    0.0000    0.0000 C   0  0  0  0  0  0  0  0  0  0  0  0
   -0.7500   -1.2990    0.0000 C   0  0  0  0  0  0  0  0  0  0  0  0
   -1.7537   -2.4138    0.0000 C   0  0  0  0  0  0  0  0  0  0  0  0
   -1.4418   -3.8810    0.0000 N   0  0  0  0  0  0  0  0  0  0  0  0
   -3.1240   -1.8037    0.0000 N   0  0  0  0  0  0  0  0  0  0  0  0
   -2.9672   -0.3119    0.0000 N   0  0  0  0  0  0  0  0  0  0  0  0
   -4.0819    0.6918    0.0000 C   0  0  0  0  0  0  0  0  0  0  0  0
    3.7500  -11.6913    0.0000 C   0  0  0  0  0  0  0  0  0  0  0  0
  1  2  1  0
  2  3  2  0
  3  4  1  0
  4  5  2  0
  5  6  1  0
  6  7  1  0
  7  8  1  0
  8  9  2  0
  8 10  1  0
 10 11  1  0
 11 12  2  0
 12 13  1  0
 13 14  2  0
 14 15  1  0
 15 16  2  0
 14 17  1  0
 17 18  2  0
 18 19  1  0
 19 20  2  0
 20 21  1  0
 21 22  2  0
 22 23  1  0
 23 24  1  0
 23 25  2  0
 25 26  1  0
 26 27  1  0
  6 28  2  0
 28  2  1  0
 16 11  1  0
 22 17  1  0
 26 21  1  0
M  END
>  <Molecule>  (889) 
CHEMBL404367

>  <Standard Type>  (889) 
Ki

>  <Standard Relation>  (889) 
>

>  <Standard Value>  (889) 
1584.89

>  <Standard Units>  (889) 
nM

>  <pChEMBL Value>  (889) 
nan

>  <Comment>  (889) 
inactive

>  <Compound Key>  (889) 
SID103904339

>  <Assay>  (889) 
CHEMBL1963742

>  <Assay Description>  (889) 
PUBCHEM_BIOASSAY: Navigating the Kinome. (Class of assay: other) Panel member name: JAK3

>  <BAO Format>  (889) 
assay format

>  <Target>  (889) 
CHEMBL2148

>  <Target Pref. Name>  (889) 
Tyrosine-protein kinase JAK3

>  <Target Organism>  (889) 
Homo sapiens

>  <Target Type>  (889) 
SINGLE PROTEIN

>  <Document>  (889) 
CHEMBL1201862

>  <Source>  (889) 
PubChem BioAssays

>  <Max Phase>  (889) 
0

>  <#Ro5 Violations>  (889) 
0

>  <Molecular Weight>  (889) 
372.43

>  <Ligand Efficiency BEI>  (889) 
nan

>  <Ligand Efficiency LE>  (889) 
nan

>  <Ligand Efficiency LLE>  (889) 
nan

>  <Ligand Efficiency SEI>  (889) 
nan

>  <ALogP>  (889) 
4.17

>  <Assay Organism>  (889) 
nan

>  <Assay Tissue ChEMBL ID>  (889) 
nan

>  <Assay Tissue Name>  (889) 
nan

>  <Assay Cell Type>  (889) 
nan

>  <Assay Subcellular Fraction>  (889) 
nan

>  <Organism Tax ID>  (889) 
9606

>  <BAO Format ID>  (889) 
BAO_0000019

>  <Published Type>  (889) 
nan

>  <Published Relation>  (889) 
nan

>  <Published Value>  (889) 
nan

>  <Published Units>  (889) 
nan

>  <Canonical Smiles>  (889) 
Cc1cccc(NC(=O)Nc2ccc(cc2)c3cncc4c3c(N)nn4C)c1

>  <Data Validity Comment>  (889) 
nan

>  <Document Journal>  (889) 
nan

>  <Document Year>  (889) 
nan

>  <SRC ID>  (889) 
7

>  <UO Units>  (889) 
UO_0000065

>  <Potential Duplicate>  (889) 
False

>  <Class>  (889) 
0

$$$$

     RDKit          2D

 25 28  0  0  0  0  0  0  0  0999 V2000
    3.0000    0.0000    0.0000 F   0  0  0  0  0  0  0  0  0  0  0  0
    1.5000    0.0000    0.0000 C   0  0  0  0  0  0  0  0  0  0  0  0
    0.7500   -1.2990    0.0000 C   0  0  0  0  0  0  0  0  0  0  0  0
   -0.7500   -1.2990    0.0000 C   0  0  0  0  0  0  0  0  0  0  0  0
   -1.5000    0.0000    0.0000 C   0  0  0  0  0  0  0  0  0  0  0  0
   -0.7500    1.2990    0.0000 C   0  0  0  0  0  0  0  0  0  0  0  0
    0.7500    1.2990    0.0000 C   0  0  0  0  0  0  0  0  0  0  0  0
   -3.0000    0.0000    0.0000 C   0  0  0  0  0  0  0  0  0  0  0  0
   -3.8817   -1.2135    0.0000 N   0  0  0  0  0  0  0  0  0  0  0  0
   -5.3083   -0.7500    0.0000 C   0  0  0  0  0  0  0  0  0  0  0  0
   -6.5218   -1.6317    0.0000 C   0  0  0  0  0  0  0  0  0  0  0  0
   -7.8921   -1.0216    0.0000 C   0  0  0  0  0  0  0  0  0  0  0  0
   -9.1056   -1.9033    0.0000 C   0  0  0  0  0  0  0  0  0  0  0  0
   -8.9488   -3.3950    0.0000 C   0  0  0  0  0  0  0  0  0  0  0  0
  -10.1624   -4.2767    0.0000 F   0  0  0  0  0  0  0  0  0  0  0  0
   -7.5785   -4.0051    0.0000 C   0  0  0  0  0  0  0  0  0  0  0  0
   -6.3650   -3.1235    0.0000 C   0  0  0  0  0  0  0  0  0  0  0  0
   -5.3083    0.7500    0.0000 C   0  0  0  0  0  0  0  0  0  0  0  0
   -3.8817    1.2135    0.0000 N   0  0  0  0  0  0  0  0  0  0  0  0
   -6.5218    1.6317    0.0000 C   0  0  0  0  0  0  0  0  0  0  0  0
   -6.3650    3.1235    0.0000 C   0  0  0  0  0  0  0  0  0  0  0  0
   -7.5785    4.0051    0.0000 C   0  0  0  0  0  0  0  0  0  0  0  0
   -8.9488    3.3950    0.0000 N   0  0  0  0  0  0  0  0  0  0  0  0
   -9.1056    1.9033    0.0000 C   0  0  0  0  0  0  0  0  0  0  0  0
   -7.8921    1.0216    0.0000 C   0  0  0  0  0  0  0  0  0  0  0  0
  1  2  1  0
  2  3  2  0
  3  4  1  0
  4  5  2  0
  5  6  1  0
  6  7  2  0
  5  8  1  0
  8  9  2  0
  9 10  1  0
 10 11  1  0
 11 12  2  0
 12 13  1  0
 13 14  2  0
 14 15  1  0
 14 16  1  0
 16 17  2  0
 10 18  2  0
 18 19  1  0
 18 20  1  0
 20 21  2  0
 21 22  1  0
 22 23  2  0
 23 24  1  0
 24 25  2  0
  7  2  1  0
 19  8  1  0
 17 11  1  0
 25 20  1  0
M  END
>  <Molecule>  (890) 
CHEMBL316264

>  <Standard Type>  (890) 
Ki

>  <Standard Relation>  (890) 
>

>  <Standard Value>  (890) 
1584.89

>  <Standard Units>  (890) 
nM

>  <pChEMBL Value>  (890) 
nan

>  <Comment>  (890) 
inactive

>  <Compound Key>  (890) 
SID103905184

>  <Assay>  (890) 
CHEMBL1963742

>  <Assay Description>  (890) 
PUBCHEM_BIOASSAY: Navigating the Kinome. (Class of assay: other) Panel member name: JAK3

>  <BAO Format>  (890) 
assay format

>  <Target>  (890) 
CHEMBL2148

>  <Target Pref. Name>  (890) 
Tyrosine-protein kinase JAK3

>  <Target Organism>  (890) 
Homo sapiens

>  <Target Type>  (890) 
SINGLE PROTEIN

>  <Document>  (890) 
CHEMBL1201862

>  <Source>  (890) 
PubChem BioAssays

>  <Max Phase>  (890) 
0

>  <#Ro5 Violations>  (890) 
1

>  <Molecular Weight>  (890) 
333.34

>  <Ligand Efficiency BEI>  (890) 
nan

>  <Ligand Efficiency LE>  (890) 
nan

>  <Ligand Efficiency LLE>  (890) 
nan

>  <Ligand Efficiency SEI>  (890) 
nan

>  <ALogP>  (890) 
5.08

>  <Assay Organism>  (890) 
nan

>  <Assay Tissue ChEMBL ID>  (890) 
nan

>  <Assay Tissue Name>  (890) 
nan

>  <Assay Cell Type>  (890) 
nan

>  <Assay Subcellular Fraction>  (890) 
nan

>  <Organism Tax ID>  (890) 
9606

>  <BAO Format ID>  (890) 
BAO_0000019

>  <Published Type>  (890) 
nan

>  <Published Relation>  (890) 
nan

>  <Published Value>  (890) 
nan

>  <Published Units>  (890) 
nan

>  <Canonical Smiles>  (890) 
Fc1ccc(cc1)c2nc(c3ccc(F)cc3)c([nH]2)c4ccncc4

>  <Data Validity Comment>  (890) 
nan

>  <Document Journal>  (890) 
nan

>  <Document Year>  (890) 
nan

>  <SRC ID>  (890) 
7

>  <UO Units>  (890) 
UO_0000065

>  <Potential Duplicate>  (890) 
False

>  <Class>  (890) 
0

$$$$

     RDKit          2D

 32 35  0  0  0  0  0  0  0  0999 V2000
    8.1575  -16.3027    0.0000 C   0  0  0  0  0  0  0  0  0  0  0  0
    8.9075  -15.0037    0.0000 C   0  0  0  0  0  0  0  0  0  0  0  0
   10.3993  -14.8469    0.0000 O   0  0  0  0  0  0  0  0  0  0  0  0
   10.7111  -13.3796    0.0000 N   0  0  0  0  0  0  0  0  0  0  0  0
    9.4121  -12.6296    0.0000 C   0  0  0  0  0  0  0  0  0  0  0  0
    9.2553  -11.1379    0.0000 N   0  0  0  0  0  0  0  0  0  0  0  0
    7.8850  -10.5278    0.0000 C   0  0  0  0  0  0  0  0  0  0  0  0
    6.6715  -11.4094    0.0000 O   0  0  0  0  0  0  0  0  0  0  0  0
    7.7282   -9.0360    0.0000 C   0  0  0  0  0  0  0  0  0  0  0  0
    6.3579   -8.4259    0.0000 C   0  0  0  0  0  0  0  0  0  0  0  0
    6.2011   -6.9341    0.0000 N   0  0  0  0  0  0  0  0  0  0  0  0
    4.8308   -6.3240    0.0000 C   0  0  0  0  0  0  0  0  0  0  0  0
    3.6172   -7.2057    0.0000 O   0  0  0  0  0  0  0  0  0  0  0  0
    4.6740   -4.8322    0.0000 N   0  0  0  0  0  0  0  0  0  0  0  0
    3.3037   -4.2221    0.0000 C   0  0  0  0  0  0  0  0  0  0  0  0
    2.0046   -4.9721    0.0000 N   0  0  0  0  0  0  0  0  0  0  0  0
    0.8899   -3.9684    0.0000 C   0  0  0  0  0  0  0  0  0  0  0  0
   -0.5773   -4.2803    0.0000 C   0  0  0  0  0  0  0  0  0  0  0  0
    1.5000   -2.5981    0.0000 C   0  0  0  0  0  0  0  0  0  0  0  0
    2.9918   -2.7549    0.0000 S   0  0  0  0  0  0  0  0  0  0  0  0
    0.7500   -1.2990    0.0000 C   0  0  0  0  0  0  0  0  0  0  0  0
    1.5000    0.0000    0.0000 C   0  0  0  0  0  0  0  0  0  0  0  0
    0.7500    1.2990    0.0000 C   0  0  0  0  0  0  0  0  0  0  0  0
   -0.7500    1.2990    0.0000 C   0  0  0  0  0  0  0  0  0  0  0  0
   -1.5000    0.0000    0.0000 C   0  0  0  0  0  0  0  0  0  0  0  0
   -0.7500   -1.2990    0.0000 C   0  0  0  0  0  0  0  0  0  0  0  0
   -1.5000    2.5981    0.0000 N   0  0  0  0  0  0  0  0  0  0  0  0
   -2.9918    2.7549    0.0000 C   0  0  0  0  0  0  0  0  0  0  0  0
   -3.3037    4.2221    0.0000 C   0  0  0  0  0  0  0  0  0  0  0  0
   -2.0046    4.9721    0.0000 C   0  0  0  0  0  0  0  0  0  0  0  0
   -0.8899    3.9684    0.0000 N   0  0  0  0  0  0  0  0  0  0  0  0
    8.2974  -13.6333    0.0000 C   0  0  0  0  0  0  0  0  0  0  0  0
  1  2  1  0
  2  3  1  0
  3  4  1  0
  4  5  2  0
  5  6  1  0
  6  7  1  0
  7  8  2  0
  7  9  1  0
  9 10  1  0
 10 11  1  0
 11 12  1  0
 12 13  2  0
 12 14  1  0
 14 15  1  0
 15 16  2  0
 16 17  1  0
 17 18  1  0
 17 19  2  0
 19 20  1  0
 19 21  1  0
 21 22  2  0
 22 23  1  0
 23 24  2  0
 24 25  1  0
 25 26  2  0
 24 27  1  0
 27 28  1  0
 28 29  2  0
 29 30  1  0
 30 31  2  0
  5 32  1  0
 32  2  2  0
 20 15  1  0
 26 21  1  0
 31 27  1  0
M  END
>  <Molecule>  (891) 
CHEMBL1986603

>  <Standard Type>  (891) 
Ki

>  <Standard Relation>  (891) 
>

>  <Standard Value>  (891) 
1584.89

>  <Standard Units>  (891) 
nM

>  <pChEMBL Value>  (891) 
nan

>  <Comment>  (891) 
inactive

>  <Compound Key>  (891) 
SID103905597

>  <Assay>  (891) 
CHEMBL1963742

>  <Assay Description>  (891) 
PUBCHEM_BIOASSAY: Navigating the Kinome. (Class of assay: other) Panel member name: JAK3

>  <BAO Format>  (891) 
assay format

>  <Target>  (891) 
CHEMBL2148

>  <Target Pref. Name>  (891) 
Tyrosine-protein kinase JAK3

>  <Target Organism>  (891) 
Homo sapiens

>  <Target Type>  (891) 
SINGLE PROTEIN

>  <Document>  (891) 
CHEMBL1201862

>  <Source>  (891) 
PubChem BioAssays

>  <Max Phase>  (891) 
0

>  <#Ro5 Violations>  (891) 
0

>  <Molecular Weight>  (891) 
451.51

>  <Ligand Efficiency BEI>  (891) 
nan

>  <Ligand Efficiency LE>  (891) 
nan

>  <Ligand Efficiency LLE>  (891) 
nan

>  <Ligand Efficiency SEI>  (891) 
nan

>  <ALogP>  (891) 
3.75

>  <Assay Organism>  (891) 
nan

>  <Assay Tissue ChEMBL ID>  (891) 
nan

>  <Assay Tissue Name>  (891) 
nan

>  <Assay Cell Type>  (891) 
nan

>  <Assay Subcellular Fraction>  (891) 
nan

>  <Organism Tax ID>  (891) 
9606

>  <BAO Format ID>  (891) 
BAO_0000019

>  <Published Type>  (891) 
nan

>  <Published Relation>  (891) 
nan

>  <Published Value>  (891) 
nan

>  <Published Units>  (891) 
nan

>  <Canonical Smiles>  (891) 
Cc1onc(NC(=O)CCNC(=O)Nc2nc(C)c(s2)c3ccc(cc3)n4cccn4)c1

>  <Data Validity Comment>  (891) 
nan

>  <Document Journal>  (891) 
nan

>  <Document Year>  (891) 
nan

>  <SRC ID>  (891) 
7

>  <UO Units>  (891) 
UO_0000065

>  <Potential Duplicate>  (891) 
False

>  <Class>  (891) 
0

$$$$

     RDKit          2D

 33 36  0  0  0  0  0  0  0  0999 V2000
    1.3299    5.6152    0.0000 C   0  0  0  0  0  0  0  0  0  0  0  0
   -0.0967    5.1517    0.0000 O   0  0  0  0  0  0  0  0  0  0  0  0
   -0.4086    3.6844    0.0000 C   0  0  0  0  0  0  0  0  0  0  0  0
    0.7062    2.6807    0.0000 C   0  0  0  0  0  0  0  0  0  0  0  0
    0.3943    1.2135    0.0000 C   0  0  0  0  0  0  0  0  0  0  0  0
    1.2760    0.0000    0.0000 N   0  0  0  0  0  0  0  0  0  0  0  0
    0.3943   -1.2135    0.0000 C   0  0  0  0  0  0  0  0  0  0  0  0
   -1.0323   -0.7500    0.0000 N   0  0  0  0  0  0  0  0  0  0  0  0
   -2.2458   -1.6317    0.0000 C   0  0  0  0  0  0  0  0  0  0  0  0
   -2.2458   -3.1317    0.0000 C   0  0  0  0  0  0  0  0  0  0  0  0
   -3.6724   -3.5952    0.0000 C   0  0  0  0  0  0  0  0  0  0  0  0
   -4.1359   -5.0218    0.0000 O   0  0  0  0  0  0  0  0  0  0  0  0
   -5.6031   -5.3337    0.0000 C   0  0  0  0  0  0  0  0  0  0  0  0
   -6.0667   -6.7602    0.0000 C   0  0  0  0  0  0  0  0  0  0  0  0
   -7.5339   -7.0721    0.0000 C   0  0  0  0  0  0  0  0  0  0  0  0
   -7.9974   -8.4987    0.0000 C   0  0  0  0  0  0  0  0  0  0  0  0
   -6.9937   -9.6134    0.0000 C   0  0  0  0  0  0  0  0  0  0  0  0
   -5.5265   -9.3015    0.0000 C   0  0  0  0  0  0  0  0  0  0  0  0
   -5.0630   -7.8750    0.0000 C   0  0  0  0  0  0  0  0  0  0  0  0
   -3.5958   -7.5631    0.0000 C   0  0  0  0  0  0  0  0  0  0  0  0
   -2.1285   -7.2512    0.0000 F   0  0  0  0  0  0  0  0  0  0  0  0
   -3.2839   -9.0303    0.0000 F   0  0  0  0  0  0  0  0  0  0  0  0
   -3.9076   -6.0959    0.0000 F   0  0  0  0  0  0  0  0  0  0  0  0
   -4.5541   -2.3817    0.0000 C   0  0  0  0  0  0  0  0  0  0  0  0
   -3.6724   -1.1682    0.0000 S   0  0  0  0  0  0  0  0  0  0  0  0
   -6.0541   -2.3817    0.0000 C   0  0  0  0  0  0  0  0  0  0  0  0
   -6.8041   -3.6807    0.0000 O   0  0  0  0  0  0  0  0  0  0  0  0
   -6.8041   -1.0826    0.0000 O   0  0  0  0  0  0  0  0  0  0  0  0
   -1.0323    0.7500    0.0000 C   0  0  0  0  0  0  0  0  0  0  0  0
   -2.1470    1.7537    0.0000 C   0  0  0  0  0  0  0  0  0  0  0  0
   -1.8351    3.2209    0.0000 C   0  0  0  0  0  0  0  0  0  0  0  0
   -2.9499    4.2246    0.0000 O   0  0  0  0  0  0  0  0  0  0  0  0
   -4.3764    3.7611    0.0000 C   0  0  0  0  0  0  0  0  0  0  0  0
  1  2  1  0
  2  3  1  0
  3  4  2  0
  4  5  1  0
  5  6  1  0
  6  7  2  0
  7  8  1  0
  8  9  1  0
  9 10  2  0
 10 11  1  0
 11 12  1  0
 12 13  1  0
 13 14  1  0
 14 15  2  0
 15 16  1  0
 16 17  2  0
 17 18  1  0
 18 19  2  0
 19 20  1  0
 20 21  1  0
 20 22  1  0
 20 23  1  0
 11 24  2  0
 24 25  1  0
 24 26  1  0
 26 27  2  0
 26 28  1  0
  8 29  1  0
 29 30  1  0
 30 31  2  0
 31 32  1  0
 32 33  1  0
 31  3  1  0
 29  5  2  0
 25  9  1  0
 19 14  1  0
M  END
>  <Molecule>  (892) 
CHEMBL474432

>  <Standard Type>  (892) 
Ki

>  <Standard Relation>  (892) 
=

>  <Standard Value>  (892) 
398.11

>  <Standard Units>  (892) 
nM

>  <pChEMBL Value>  (892) 
6.4

>  <Comment>  (892) 
active

>  <Compound Key>  (892) 
SID103905428

>  <Assay>  (892) 
CHEMBL1963742

>  <Assay Description>  (892) 
PUBCHEM_BIOASSAY: Navigating the Kinome. (Class of assay: other) Panel member name: JAK3

>  <BAO Format>  (892) 
assay format

>  <Target>  (892) 
CHEMBL2148

>  <Target Pref. Name>  (892) 
Tyrosine-protein kinase JAK3

>  <Target Organism>  (892) 
Homo sapiens

>  <Target Type>  (892) 
SINGLE PROTEIN

>  <Document>  (892) 
CHEMBL1201862

>  <Source>  (892) 
PubChem BioAssays

>  <Max Phase>  (892) 
0

>  <#Ro5 Violations>  (892) 
1

>  <Molecular Weight>  (892) 
478.45

>  <Ligand Efficiency BEI>  (892) 
nan

>  <Ligand Efficiency LE>  (892) 
nan

>  <Ligand Efficiency LLE>  (892) 
nan

>  <Ligand Efficiency SEI>  (892) 
nan

>  <ALogP>  (892) 
5.4

>  <Assay Organism>  (892) 
nan

>  <Assay Tissue ChEMBL ID>  (892) 
nan

>  <Assay Tissue Name>  (892) 
nan

>  <Assay Cell Type>  (892) 
nan

>  <Assay Subcellular Fraction>  (892) 
nan

>  <Organism Tax ID>  (892) 
9606

>  <BAO Format ID>  (892) 
BAO_0000019

>  <Published Type>  (892) 
nan

>  <Published Relation>  (892) 
nan

>  <Published Value>  (892) 
nan

>  <Published Units>  (892) 
nan

>  <Canonical Smiles>  (892) 
COc1cc2ncn(c3cc(OCc4ccccc4C(F)(F)F)c(s3)C(=O)O)c2cc1OC

>  <Data Validity Comment>  (892) 
nan

>  <Document Journal>  (892) 
nan

>  <Document Year>  (892) 
nan

>  <SRC ID>  (892) 
7

>  <UO Units>  (892) 
UO_0000065

>  <Potential Duplicate>  (892) 
False

>  <Class>  (892) 
1

$$$$

     RDKit          2D

 44 50  0  0  0  0  0  0  0  0999 V2000
  -12.3143   -4.9666    0.0000 C   0  0  0  0  0  0  0  0  0  0  0  0
  -11.1996   -5.9703    0.0000 C   0  0  0  0  0  0  0  0  0  0  0  0
  -11.5115   -7.4375    0.0000 O   0  0  0  0  0  0  0  0  0  0  0  0
   -9.7730   -5.5068    0.0000 N   0  0  0  0  0  0  0  0  0  0  0  0
   -9.4612   -4.0396    0.0000 C   0  0  0  0  0  0  0  0  0  0  0  0
   -8.0346   -3.5760    0.0000 C   0  0  0  0  0  0  0  0  0  0  0  0
   -6.9199   -4.5797    0.0000 N   0  0  0  0  0  0  0  0  0  0  0  0
   -7.2317   -6.0469    0.0000 C   0  0  0  0  0  0  0  0  0  0  0  0
   -8.6583   -6.5105    0.0000 C   0  0  0  0  0  0  0  0  0  0  0  0
   -5.4933   -4.1162    0.0000 C   0  0  0  0  0  0  0  0  0  0  0  0
   -4.3786   -5.1199    0.0000 C   0  0  0  0  0  0  0  0  0  0  0  0
   -2.9520   -4.6564    0.0000 C   0  0  0  0  0  0  0  0  0  0  0  0
   -2.6401   -3.1891    0.0000 C   0  0  0  0  0  0  0  0  0  0  0  0
   -3.7548   -2.1855    0.0000 C   0  0  0  0  0  0  0  0  0  0  0  0
   -5.1814   -2.6490    0.0000 C   0  0  0  0  0  0  0  0  0  0  0  0
   -1.2135   -2.7256    0.0000 N   0  0  0  0  0  0  0  0  0  0  0  0
    0.0000   -3.6073    0.0000 N   0  0  0  0  0  0  0  0  0  0  0  0
    1.2135   -2.7256    0.0000 C   0  0  0  0  0  0  0  0  0  0  0  0
    2.6401   -3.1891    0.0000 C   0  0  0  0  0  0  0  0  0  0  0  0
    2.9520   -4.6564    0.0000 C   0  0  0  0  0  0  0  0  0  0  0  0
    4.3786   -5.1199    0.0000 C   0  0  0  0  0  0  0  0  0  0  0  0
    5.4933   -4.1162    0.0000 C   0  0  0  0  0  0  0  0  0  0  0  0
    6.9199   -4.5797    0.0000 N   0  0  0  0  0  0  0  0  0  0  0  0
    7.2317   -6.0469    0.0000 C   0  0  0  0  0  0  0  0  0  0  0  0
    6.1170   -7.0506    0.0000 O   0  0  0  0  0  0  0  0  0  0  0  0
    8.6583   -6.5105    0.0000 C   0  0  0  0  0  0  0  0  0  0  0  0
    9.1218   -7.9371    0.0000 C   0  0  0  0  0  0  0  0  0  0  0  0
   10.6218   -7.9371    0.0000 C   0  0  0  0  0  0  0  0  0  0  0  0
   11.6255   -9.0518    0.0000 C   0  0  0  0  0  0  0  0  0  0  0  0
   13.0928   -8.7399    0.0000 C   0  0  0  0  0  0  0  0  0  0  0  0
   13.5563   -7.3133    0.0000 C   0  0  0  0  0  0  0  0  0  0  0  0
   12.5526   -6.1986    0.0000 C   0  0  0  0  0  0  0  0  0  0  0  0
   11.0854   -6.5105    0.0000 C   0  0  0  0  0  0  0  0  0  0  0  0
    9.8718   -5.6288    0.0000 N   0  0  0  0  0  0  0  0  0  0  0  0
    9.8718   -4.1288    0.0000 C   0  0  0  0  0  0  0  0  0  0  0  0
    5.1814   -2.6490    0.0000 C   0  0  0  0  0  0  0  0  0  0  0  0
    3.7548   -2.1855    0.0000 C   0  0  0  0  0  0  0  0  0  0  0  0
    0.7500   -1.2990    0.0000 C   0  0  0  0  0  0  0  0  0  0  0  0
    1.5000    0.0000    0.0000 C   0  0  0  0  0  0  0  0  0  0  0  0
    3.0000    0.0000    0.0000 N   0  0  0  0  0  0  0  0  0  0  0  0
    0.7500    1.2990    0.0000 N   0  0  0  0  0  0  0  0  0  0  0  0
   -0.7500    1.2990    0.0000 C   0  0  0  0  0  0  0  0  0  0  0  0
   -1.5000    0.0000    0.0000 N   0  0  0  0  0  0  0  0  0  0  0  0
   -0.7500   -1.2990    0.0000 C   0  0  0  0  0  0  0  0  0  0  0  0
  1  2  1  0
  2  3  2  0
  2  4  1  0
  4  5  1  0
  5  6  1  0
  6  7  1  0
  7  8  1  0
  8  9  1  0
  7 10  1  0
 10 11  1  0
 11 12  1  0
 12 13  1  0
 13 14  1  0
 14 15  1  0
 13 16  1  0
 16 17  1  0
 17 18  2  0
 18 19  1  0
 19 20  2  0
 20 21  1  0
 21 22  2  0
 22 23  1  0
 23 24  1  0
 24 25  2  0
 24 26  1  0
 26 27  2  0
 27 28  1  0
 28 29  2  0
 29 30  1  0
 30 31  2  0
 31 32  1  0
 32 33  2  0
 33 34  1  0
 34 35  1  0
 22 36  1  0
 36 37  2  0
 18 38  1  0
 38 39  2  0
 39 40  1  0
 39 41  1  0
 41 42  2  0
 42 43  1  0
 43 44  2  0
  9  4  1  0
 15 10  1  0
 44 16  1  0
 37 19  1  0
 34 26  1  0
 33 28  1  0
 44 38  1  0
M  END
>  <Molecule>  (893) 
CHEMBL1972584

>  <Standard Type>  (893) 
Ki

>  <Standard Relation>  (893) 
>

>  <Standard Value>  (893) 
1584.89

>  <Standard Units>  (893) 
nM

>  <pChEMBL Value>  (893) 
nan

>  <Comment>  (893) 
inactive

>  <Compound Key>  (893) 
SID103904787

>  <Assay>  (893) 
CHEMBL1963742

>  <Assay Description>  (893) 
PUBCHEM_BIOASSAY: Navigating the Kinome. (Class of assay: other) Panel member name: JAK3

>  <BAO Format>  (893) 
assay format

>  <Target>  (893) 
CHEMBL2148

>  <Target Pref. Name>  (893) 
Tyrosine-protein kinase JAK3

>  <Target Organism>  (893) 
Homo sapiens

>  <Target Type>  (893) 
SINGLE PROTEIN

>  <Document>  (893) 
CHEMBL1201862

>  <Source>  (893) 
PubChem BioAssays

>  <Max Phase>  (893) 
0

>  <#Ro5 Violations>  (893) 
1

>  <Molecular Weight>  (893) 
591.72

>  <Ligand Efficiency BEI>  (893) 
nan

>  <Ligand Efficiency LE>  (893) 
nan

>  <Ligand Efficiency LLE>  (893) 
nan

>  <Ligand Efficiency SEI>  (893) 
nan

>  <ALogP>  (893) 
4.47

>  <Assay Organism>  (893) 
nan

>  <Assay Tissue ChEMBL ID>  (893) 
nan

>  <Assay Tissue Name>  (893) 
nan

>  <Assay Cell Type>  (893) 
nan

>  <Assay Subcellular Fraction>  (893) 
nan

>  <Organism Tax ID>  (893) 
9606

>  <BAO Format ID>  (893) 
BAO_0000019

>  <Published Type>  (893) 
nan

>  <Published Relation>  (893) 
nan

>  <Published Value>  (893) 
nan

>  <Published Units>  (893) 
nan

>  <Canonical Smiles>  (893) 
CC(=O)N1CCN(CC1)C2CCC(CC2)n3nc(c4ccc(NC(=O)c5cc6ccccc6n5C)cc4)c7c(N)ncnc37

>  <Data Validity Comment>  (893) 
nan

>  <Document Journal>  (893) 
nan

>  <Document Year>  (893) 
nan

>  <SRC ID>  (893) 
7

>  <UO Units>  (893) 
UO_0000065

>  <Potential Duplicate>  (893) 
False

>  <Class>  (893) 
0

$$$$

     RDKit          2D

 37 41  0  0  0  0  0  0  0  0999 V2000
    3.0000    0.0000    0.0000 C   0  0  0  0  0  0  0  0  0  0  0  0
    1.5000    0.0000    0.0000 N   0  0  0  0  0  0  0  0  0  0  0  0
    0.7500   -1.2990    0.0000 C   0  0  0  0  0  0  0  0  0  0  0  0
   -0.7500   -1.2990    0.0000 C   0  0  0  0  0  0  0  0  0  0  0  0
   -1.5000    0.0000    0.0000 N   0  0  0  0  0  0  0  0  0  0  0  0
   -3.0000    0.0000    0.0000 C   0  0  0  0  0  0  0  0  0  0  0  0
   -3.7500    1.2990    0.0000 C   0  0  0  0  0  0  0  0  0  0  0  0
   -3.0000    2.5981    0.0000 C   0  0  0  0  0  0  0  0  0  0  0  0
   -3.7500    3.8971    0.0000 C   0  0  0  0  0  0  0  0  0  0  0  0
   -5.2500    3.8971    0.0000 C   0  0  0  0  0  0  0  0  0  0  0  0
   -6.0000    2.5981    0.0000 C   0  0  0  0  0  0  0  0  0  0  0  0
   -5.2500    1.2990    0.0000 C   0  0  0  0  0  0  0  0  0  0  0  0
   -6.0000    5.1962    0.0000 C   0  0  0  0  0  0  0  0  0  0  0  0
   -7.5000    5.1962    0.0000 O   0  0  0  0  0  0  0  0  0  0  0  0
   -5.2500    6.4952    0.0000 N   0  0  0  0  0  0  0  0  0  0  0  0
   -6.0000    7.7942    0.0000 C   0  0  0  0  0  0  0  0  0  0  0  0
   -5.2500    9.0933    0.0000 C   0  0  0  0  0  0  0  0  0  0  0  0
   -6.0000   10.3923    0.0000 C   0  0  0  0  0  0  0  0  0  0  0  0
   -7.5000   10.3923    0.0000 C   0  0  0  0  0  0  0  0  0  0  0  0
   -8.2500   11.6913    0.0000 C   0  0  0  0  0  0  0  0  0  0  0  0
   -8.2500    9.0933    0.0000 C   0  0  0  0  0  0  0  0  0  0  0  0
   -9.7500    9.0933    0.0000 N   0  0  0  0  0  0  0  0  0  0  0  0
  -10.5000    7.7942    0.0000 C   0  0  0  0  0  0  0  0  0  0  0  0
  -12.0000    7.7942    0.0000 N   0  0  0  0  0  0  0  0  0  0  0  0
  -12.7500    6.4952    0.0000 C   0  0  0  0  0  0  0  0  0  0  0  0
  -12.0000    5.1962    0.0000 C   0  0  0  0  0  0  0  0  0  0  0  0
  -10.5000    5.1962    0.0000 C   0  0  0  0  0  0  0  0  0  0  0  0
   -9.7500    6.4952    0.0000 N   0  0  0  0  0  0  0  0  0  0  0  0
   -9.7500    3.8971    0.0000 C   0  0  0  0  0  0  0  0  0  0  0  0
  -10.5000    2.5981    0.0000 C   0  0  0  0  0  0  0  0  0  0  0  0
   -9.7500    1.2990    0.0000 C   0  0  0  0  0  0  0  0  0  0  0  0
   -8.2500    1.2990    0.0000 C   0  0  0  0  0  0  0  0  0  0  0  0
   -7.5000    2.5981    0.0000 N   0  0  0  0  0  0  0  0  0  0  0  0
   -8.2500    3.8971    0.0000 C   0  0  0  0  0  0  0  0  0  0  0  0
   -7.5000    7.7942    0.0000 C   0  0  0  0  0  0  0  0  0  0  0  0
   -0.7500    1.2990    0.0000 C   0  0  0  0  0  0  0  0  0  0  0  0
    0.7500    1.2990    0.0000 C   0  0  0  0  0  0  0  0  0  0  0  0
  1  2  1  0
  2  3  1  0
  3  4  1  0
  4  5  1  0
  5  6  1  0
  6  7  1  0
  7  8  2  0
  8  9  1  0
  9 10  2  0
 10 11  1  0
 11 12  2  0
 10 13  1  0
 13 14  2  0
 13 15  1  0
 15 16  1  0
 16 17  2  0
 17 18  1  0
 18 19  2  0
 19 20  1  0
 19 21  1  0
 21 22  1  0
 22 23  1  0
 23 24  2  0
 24 25  1  0
 25 26  2  0
 26 27  1  0
 27 28  2  0
 27 29  1  0
 29 30  2  0
 30 31  1  0
 31 32  2  0
 32 33  1  0
 33 34  2  0
 21 35  2  0
  5 36  1  0
 36 37  1  0
 37  2  1  0
 12  7  1  0
 35 16  1  0
 28 23  1  0
 34 29  1  0
M  END
>  <Molecule>  (894) 
CHEMBL941

>  <Standard Type>  (894) 
Ki

>  <Standard Relation>  (894) 
>

>  <Standard Value>  (894) 
3981.07

>  <Standard Units>  (894) 
nM

>  <pChEMBL Value>  (894) 
nan

>  <Comment>  (894) 
inactive

>  <Compound Key>  (894) 
imatinib

>  <Assay>  (894) 
CHEMBL1963742

>  <Assay Description>  (894) 
PUBCHEM_BIOASSAY: Navigating the Kinome. (Class of assay: other) Panel member name: JAK3

>  <BAO Format>  (894) 
assay format

>  <Target>  (894) 
CHEMBL2148

>  <Target Pref. Name>  (894) 
Tyrosine-protein kinase JAK3

>  <Target Organism>  (894) 
Homo sapiens

>  <Target Type>  (894) 
SINGLE PROTEIN

>  <Document>  (894) 
CHEMBL1201862

>  <Source>  (894) 
PubChem BioAssays

>  <Max Phase>  (894) 
4

>  <#Ro5 Violations>  (894) 
0

>  <Molecular Weight>  (894) 
493.62

>  <Ligand Efficiency BEI>  (894) 
nan

>  <Ligand Efficiency LE>  (894) 
nan

>  <Ligand Efficiency LLE>  (894) 
nan

>  <Ligand Efficiency SEI>  (894) 
nan

>  <ALogP>  (894) 
4.59

>  <Assay Organism>  (894) 
nan

>  <Assay Tissue ChEMBL ID>  (894) 
nan

>  <Assay Tissue Name>  (894) 
nan

>  <Assay Cell Type>  (894) 
nan

>  <Assay Subcellular Fraction>  (894) 
nan

>  <Organism Tax ID>  (894) 
9606

>  <BAO Format ID>  (894) 
BAO_0000019

>  <Published Type>  (894) 
nan

>  <Published Relation>  (894) 
nan

>  <Published Value>  (894) 
nan

>  <Published Units>  (894) 
nan

>  <Canonical Smiles>  (894) 
CN1CCN(Cc2ccc(cc2)C(=O)Nc3ccc(C)c(Nc4nccc(n4)c5cccnc5)c3)CC1

>  <Data Validity Comment>  (894) 
nan

>  <Document Journal>  (894) 
nan

>  <Document Year>  (894) 
nan

>  <SRC ID>  (894) 
7

>  <UO Units>  (894) 
UO_0000065

>  <Potential Duplicate>  (894) 
False

>  <Class>  (894) 
0

$$$$

     RDKit          2D

 33 36  0  0  0  0  0  0  0  0999 V2000
    3.0000    0.0000    0.0000 C   0  0  0  0  0  0  0  0  0  0  0  0
    1.5000    0.0000    0.0000 C   0  0  0  0  0  0  0  0  0  0  0  0
    0.7500   -1.2990    0.0000 N   0  0  0  0  0  0  0  0  0  0  0  0
   -0.7500   -1.2990    0.0000 C   0  0  0  0  0  0  0  0  0  0  0  0
   -1.5000   -2.5981    0.0000 N   0  0  0  0  0  0  0  0  0  0  0  0
   -3.0000   -2.5981    0.0000 C   0  0  0  0  0  0  0  0  0  0  0  0
   -3.8817   -3.8116    0.0000 N   0  0  0  0  0  0  0  0  0  0  0  0
   -5.3083   -3.3481    0.0000 C   0  0  0  0  0  0  0  0  0  0  0  0
   -5.3083   -1.8481    0.0000 C   0  0  0  0  0  0  0  0  0  0  0  0
   -3.8817   -1.3846    0.0000 S   0  0  0  0  0  0  0  0  0  0  0  0
   -6.5218   -0.9664    0.0000 C   0  0  0  0  0  0  0  0  0  0  0  0
   -7.8921   -1.5765    0.0000 O   0  0  0  0  0  0  0  0  0  0  0  0
   -6.3650    0.5254    0.0000 N   0  0  0  0  0  0  0  0  0  0  0  0
   -7.5785    1.4071    0.0000 C   0  0  0  0  0  0  0  0  0  0  0  0
   -7.4217    2.8988    0.0000 C   0  0  0  0  0  0  0  0  0  0  0  0
   -6.0514    3.5090    0.0000 C   0  0  0  0  0  0  0  0  0  0  0  0
   -8.6353    3.7805    0.0000 C   0  0  0  0  0  0  0  0  0  0  0  0
  -10.0056    3.1704    0.0000 C   0  0  0  0  0  0  0  0  0  0  0  0
  -10.1624    1.6786    0.0000 C   0  0  0  0  0  0  0  0  0  0  0  0
   -8.9488    0.7970    0.0000 C   0  0  0  0  0  0  0  0  0  0  0  0
   -9.1056   -0.6948    0.0000 Cl  0  0  0  0  0  0  0  0  0  0  0  0
   -1.5000    0.0000    0.0000 C   0  0  0  0  0  0  0  0  0  0  0  0
   -0.7500    1.2990    0.0000 C   0  0  0  0  0  0  0  0  0  0  0  0
    0.7500    1.2990    0.0000 N   0  0  0  0  0  0  0  0  0  0  0  0
   -1.5000    2.5981    0.0000 N   0  0  0  0  0  0  0  0  0  0  0  0
   -0.7500    3.8971    0.0000 C   0  0  0  0  0  0  0  0  0  0  0  0
   -1.5000    5.1962    0.0000 C   0  0  0  0  0  0  0  0  0  0  0  0
   -3.0000    5.1962    0.0000 N   0  0  0  0  0  0  0  0  0  0  0  0
   -3.7500    6.4952    0.0000 C   0  0  0  0  0  0  0  0  0  0  0  0
   -3.0000    7.7942    0.0000 C   0  0  0  0  0  0  0  0  0  0  0  0
   -3.7500    9.0933    0.0000 O   0  0  0  0  0  0  0  0  0  0  0  0
   -3.7500    3.8971    0.0000 C   0  0  0  0  0  0  0  0  0  0  0  0
   -3.0000    2.5981    0.0000 C   0  0  0  0  0  0  0  0  0  0  0  0
  1  2  1  0
  2  3  2  0
  3  4  1  0
  4  5  1  0
  5  6  1  0
  6  7  2  0
  7  8  1  0
  8  9  2  0
  9 10  1  0
  9 11  1  0
 11 12  2  0
 11 13  1  0
 13 14  1  0
 14 15  2  0
 15 16  1  0
 15 17  1  0
 17 18  2  0
 18 19  1  0
 19 20  2  0
 20 21  1  0
  4 22  2  0
 22 23  1  0
 23 24  2  0
 23 25  1  0
 25 26  1  0
 26 27  1  0
 27 28  1  0
 28 29  1  0
 29 30  1  0
 30 31  1  0
 28 32  1  0
 32 33  1  0
 24  2  1  0
 10  6  1  0
 20 14  1  0
 33 25  1  0
M  END
>  <Molecule>  (895) 
CHEMBL1421

>  <Standard Type>  (895) 
Ki

>  <Standard Relation>  (895) 
>

>  <Standard Value>  (895) 
3981.07

>  <Standard Units>  (895) 
nM

>  <pChEMBL Value>  (895) 
nan

>  <Comment>  (895) 
inactive

>  <Compound Key>  (895) 
Dasatinib

>  <Assay>  (895) 
CHEMBL1963742

>  <Assay Description>  (895) 
PUBCHEM_BIOASSAY: Navigating the Kinome. (Class of assay: other) Panel member name: JAK3

>  <BAO Format>  (895) 
assay format

>  <Target>  (895) 
CHEMBL2148

>  <Target Pref. Name>  (895) 
Tyrosine-protein kinase JAK3

>  <Target Organism>  (895) 
Homo sapiens

>  <Target Type>  (895) 
SINGLE PROTEIN

>  <Document>  (895) 
CHEMBL1201862

>  <Source>  (895) 
PubChem BioAssays

>  <Max Phase>  (895) 
4

>  <#Ro5 Violations>  (895) 
0

>  <Molecular Weight>  (895) 
488.02

>  <Ligand Efficiency BEI>  (895) 
nan

>  <Ligand Efficiency LE>  (895) 
nan

>  <Ligand Efficiency LLE>  (895) 
nan

>  <Ligand Efficiency SEI>  (895) 
nan

>  <ALogP>  (895) 
3.31

>  <Assay Organism>  (895) 
nan

>  <Assay Tissue ChEMBL ID>  (895) 
nan

>  <Assay Tissue Name>  (895) 
nan

>  <Assay Cell Type>  (895) 
nan

>  <Assay Subcellular Fraction>  (895) 
nan

>  <Organism Tax ID>  (895) 
9606

>  <BAO Format ID>  (895) 
BAO_0000019

>  <Published Type>  (895) 
nan

>  <Published Relation>  (895) 
nan

>  <Published Value>  (895) 
nan

>  <Published Units>  (895) 
nan

>  <Canonical Smiles>  (895) 
Cc1nc(Nc2ncc(s2)C(=O)Nc3c(C)cccc3Cl)cc(n1)N4CCN(CCO)CC4

>  <Data Validity Comment>  (895) 
nan

>  <Document Journal>  (895) 
nan

>  <Document Year>  (895) 
nan

>  <SRC ID>  (895) 
7

>  <UO Units>  (895) 
UO_0000065

>  <Potential Duplicate>  (895) 
False

>  <Class>  (895) 
0

$$$$

     RDKit          2D

 33 37  0  0  0  0  0  0  0  0999 V2000
    0.7500   -6.4952    0.0000 C   0  0  0  0  0  0  0  0  0  0  0  0
    1.5000   -5.1962    0.0000 C   0  0  0  0  0  0  0  0  0  0  0  0
    3.0000   -5.1962    0.0000 O   0  0  0  0  0  0  0  0  0  0  0  0
    0.7500   -3.8971    0.0000 C   0  0  0  0  0  0  0  0  0  0  0  0
    1.5000   -2.5981    0.0000 C   0  0  0  0  0  0  0  0  0  0  0  0
    3.0000   -2.5981    0.0000 C   0  0  0  0  0  0  0  0  0  0  0  0
    0.7500   -1.2990    0.0000 C   0  0  0  0  0  0  0  0  0  0  0  0
    1.5000    0.0000    0.0000 C   0  0  0  0  0  0  0  0  0  0  0  0
    0.7500    1.2990    0.0000 N   0  0  0  0  0  0  0  0  0  0  0  0
   -0.7500    1.2990    0.0000 C   0  0  0  0  0  0  0  0  0  0  0  0
   -1.5000    2.5981    0.0000 N   0  0  0  0  0  0  0  0  0  0  0  0
   -0.7500    3.8971    0.0000 C   0  0  0  0  0  0  0  0  0  0  0  0
    0.7500    3.8971    0.0000 C   0  0  0  0  0  0  0  0  0  0  0  0
    1.5000    5.1962    0.0000 C   0  0  0  0  0  0  0  0  0  0  0  0
    0.7500    6.4952    0.0000 C   0  0  0  0  0  0  0  0  0  0  0  0
   -0.7500    6.4952    0.0000 C   0  0  0  0  0  0  0  0  0  0  0  0
   -1.5000    5.1962    0.0000 N   0  0  0  0  0  0  0  0  0  0  0  0
    1.5000    7.7942    0.0000 N   0  0  0  0  0  0  0  0  0  0  0  0
    3.0000    7.7942    0.0000 C   0  0  0  0  0  0  0  0  0  0  0  0
    3.7500    9.0933    0.0000 C   0  0  0  0  0  0  0  0  0  0  0  0
    3.0000   10.3923    0.0000 N   0  0  0  0  0  0  0  0  0  0  0  0
    1.5000   10.3923    0.0000 C   0  0  0  0  0  0  0  0  0  0  0  0
    0.7500    9.0933    0.0000 C   0  0  0  0  0  0  0  0  0  0  0  0
   -1.5000    0.0000    0.0000 N   0  0  0  0  0  0  0  0  0  0  0  0
   -0.7500   -1.2990    0.0000 C   0  0  0  0  0  0  0  0  0  0  0  0
   -1.5000   -2.5981    0.0000 N   0  0  0  0  0  0  0  0  0  0  0  0
   -3.0000   -2.5981    0.0000 C   0  0  0  0  0  0  0  0  0  0  0  0
   -3.8817   -3.8116    0.0000 C   0  0  0  0  0  0  0  0  0  0  0  0
   -5.3083   -3.3481    0.0000 C   0  0  0  0  0  0  0  0  0  0  0  0
   -5.3083   -1.8481    0.0000 C   0  0  0  0  0  0  0  0  0  0  0  0
   -3.8817   -1.3846    0.0000 C   0  0  0  0  0  0  0  0  0  0  0  0
   -0.7500   -3.8971    0.0000 C   0  0  0  0  0  0  0  0  0  0  0  0
   -1.5000   -5.1962    0.0000 O   0  0  0  0  0  0  0  0  0  0  0  0
  1  2  1  0
  2  3  2  0
  2  4  1  0
  4  5  2  0
  5  6  1  0
  5  7  1  0
  7  8  2  0
  8  9  1  0
  9 10  2  0
 10 11  1  0
 11 12  1  0
 12 13  2  0
 13 14  1  0
 14 15  2  0
 15 16  1  0
 16 17  2  0
 15 18  1  0
 18 19  1  0
 19 20  1  0
 20 21  1  0
 21 22  1  0
 22 23  1  0
 10 24  1  0
 24 25  2  0
 25 26  1  0
 26 27  1  0
 27 28  1  0
 28 29  1  0
 29 30  1  0
 30 31  1  0
 26 32  1  0
 32 33  2  0
 32  4  1  0
 25  7  1  0
 17 12  1  0
 23 18  1  0
 31 27  1  0
M  END
>  <Molecule>  (896) 
CHEMBL189963

>  <Standard Type>  (896) 
Ki

>  <Standard Relation>  (896) 
>

>  <Standard Value>  (896) 
5011.87

>  <Standard Units>  (896) 
nM

>  <pChEMBL Value>  (896) 
nan

>  <Comment>  (896) 
inactive

>  <Compound Key>  (896) 
PD-0332991

>  <Assay>  (896) 
CHEMBL1963742

>  <Assay Description>  (896) 
PUBCHEM_BIOASSAY: Navigating the Kinome. (Class of assay: other) Panel member name: JAK3

>  <BAO Format>  (896) 
assay format

>  <Target>  (896) 
CHEMBL2148

>  <Target Pref. Name>  (896) 
Tyrosine-protein kinase JAK3

>  <Target Organism>  (896) 
Homo sapiens

>  <Target Type>  (896) 
SINGLE PROTEIN

>  <Document>  (896) 
CHEMBL1201862

>  <Source>  (896) 
PubChem BioAssays

>  <Max Phase>  (896) 
4

>  <#Ro5 Violations>  (896) 
0

>  <Molecular Weight>  (896) 
447.54

>  <Ligand Efficiency BEI>  (896) 
nan

>  <Ligand Efficiency LE>  (896) 
nan

>  <Ligand Efficiency LLE>  (896) 
nan

>  <Ligand Efficiency SEI>  (896) 
nan

>  <ALogP>  (896) 
2.97

>  <Assay Organism>  (896) 
nan

>  <Assay Tissue ChEMBL ID>  (896) 
nan

>  <Assay Tissue Name>  (896) 
nan

>  <Assay Cell Type>  (896) 
nan

>  <Assay Subcellular Fraction>  (896) 
nan

>  <Organism Tax ID>  (896) 
9606

>  <BAO Format ID>  (896) 
BAO_0000019

>  <Published Type>  (896) 
nan

>  <Published Relation>  (896) 
nan

>  <Published Value>  (896) 
nan

>  <Published Units>  (896) 
nan

>  <Canonical Smiles>  (896) 
CC(=O)C1=C(C)c2cnc(Nc3ccc(cn3)N4CCNCC4)nc2N(C5CCCC5)C1=O

>  <Data Validity Comment>  (896) 
nan

>  <Document Journal>  (896) 
nan

>  <Document Year>  (896) 
nan

>  <SRC ID>  (896) 
7

>  <UO Units>  (896) 
UO_0000065

>  <Potential Duplicate>  (896) 
False

>  <Class>  (896) 
0

$$$$

     RDKit          2D

 27 29  0  0  0  0  0  0  0  0999 V2000
    3.7500   -1.2990    0.0000 C   0  0  0  0  0  0  0  0  0  0  0  0
    3.0000    0.0000    0.0000 O   0  0  0  0  0  0  0  0  0  0  0  0
    1.5000    0.0000    0.0000 C   0  0  0  0  0  0  0  0  0  0  0  0
    0.7500   -1.2990    0.0000 C   0  0  0  0  0  0  0  0  0  0  0  0
   -0.7500   -1.2990    0.0000 C   0  0  0  0  0  0  0  0  0  0  0  0
   -1.5000    0.0000    0.0000 C   0  0  0  0  0  0  0  0  0  0  0  0
   -3.0000    0.0000    0.0000 C   0  0  0  0  0  0  0  0  0  0  0  0
   -3.7500    1.2990    0.0000 O   0  0  0  0  0  0  0  0  0  0  0  0
   -5.2500    1.2990    0.0000 C   0  0  0  0  0  0  0  0  0  0  0  0
   -6.0000    2.5981    0.0000 C   0  0  0  0  0  0  0  0  0  0  0  0
   -7.5000    2.5981    0.0000 C   0  0  0  0  0  0  0  0  0  0  0  0
   -8.2500    1.2990    0.0000 C   0  0  0  0  0  0  0  0  0  0  0  0
   -9.7500    1.2990    0.0000 C   0  0  0  0  0  0  0  0  0  0  0  0
  -10.5000    2.5981    0.0000 C   0  0  0  0  0  0  0  0  0  0  0  0
   -9.7500    3.8971    0.0000 C   0  0  0  0  0  0  0  0  0  0  0  0
  -10.5000    5.1962    0.0000 N   0  0  0  0  0  0  0  0  0  0  0  0
  -12.0000    5.1962    0.0000 C   0  0  0  0  0  0  0  0  0  0  0  0
  -12.7500    6.4952    0.0000 N   0  0  0  0  0  0  0  0  0  0  0  0
  -12.7500    3.8971    0.0000 N   0  0  0  0  0  0  0  0  0  0  0  0
  -12.0000    2.5981    0.0000 C   0  0  0  0  0  0  0  0  0  0  0  0
  -12.7500    1.2990    0.0000 N   0  0  0  0  0  0  0  0  0  0  0  0
   -7.5000    0.0000    0.0000 C   0  0  0  0  0  0  0  0  0  0  0  0
   -6.0000    0.0000    0.0000 C   0  0  0  0  0  0  0  0  0  0  0  0
   -5.2500   -1.2990    0.0000 O   0  0  0  0  0  0  0  0  0  0  0  0
   -6.0000   -2.5981    0.0000 C   0  0  0  0  0  0  0  0  0  0  0  0
   -0.7500    1.2990    0.0000 C   0  0  0  0  0  0  0  0  0  0  0  0
    0.7500    1.2990    0.0000 C   0  0  0  0  0  0  0  0  0  0  0  0
  1  2  1  0
  2  3  1  0
  3  4  2  0
  4  5  1  0
  5  6  2  0
  6  7  1  0
  7  8  1  0
  8  9  1  0
  9 10  2  0
 10 11  1  0
 11 12  2  0
 12 13  1  0
 13 14  1  0
 14 15  2  0
 15 16  1  0
 16 17  2  0
 17 18  1  0
 17 19  1  0
 19 20  2  0
 20 21  1  0
 12 22  1  0
 22 23  2  0
 23 24  1  0
 24 25  1  0
  6 26  1  0
 26 27  2  0
 27  3  1  0
 23  9  1  0
 20 14  1  0
M  END
>  <Molecule>  (897) 
CHEMBL261849

>  <Standard Type>  (897) 
Ki

>  <Standard Relation>  (897) 
>

>  <Standard Value>  (897) 
5011.87

>  <Standard Units>  (897) 
nM

>  <pChEMBL Value>  (897) 
nan

>  <Comment>  (897) 
inactive

>  <Compound Key>  (897) 
GW2580

>  <Assay>  (897) 
CHEMBL1963742

>  <Assay Description>  (897) 
PUBCHEM_BIOASSAY: Navigating the Kinome. (Class of assay: other) Panel member name: JAK3

>  <BAO Format>  (897) 
assay format

>  <Target>  (897) 
CHEMBL2148

>  <Target Pref. Name>  (897) 
Tyrosine-protein kinase JAK3

>  <Target Organism>  (897) 
Homo sapiens

>  <Target Type>  (897) 
SINGLE PROTEIN

>  <Document>  (897) 
CHEMBL1201862

>  <Source>  (897) 
PubChem BioAssays

>  <Max Phase>  (897) 
0

>  <#Ro5 Violations>  (897) 
0

>  <Molecular Weight>  (897) 
366.42

>  <Ligand Efficiency BEI>  (897) 
nan

>  <Ligand Efficiency LE>  (897) 
nan

>  <Ligand Efficiency LLE>  (897) 
nan

>  <Ligand Efficiency SEI>  (897) 
nan

>  <ALogP>  (897) 
2.83

>  <Assay Organism>  (897) 
nan

>  <Assay Tissue ChEMBL ID>  (897) 
nan

>  <Assay Tissue Name>  (897) 
nan

>  <Assay Cell Type>  (897) 
nan

>  <Assay Subcellular Fraction>  (897) 
nan

>  <Organism Tax ID>  (897) 
9606

>  <BAO Format ID>  (897) 
BAO_0000019

>  <Published Type>  (897) 
nan

>  <Published Relation>  (897) 
nan

>  <Published Value>  (897) 
nan

>  <Published Units>  (897) 
nan

>  <Canonical Smiles>  (897) 
COc1ccc(COc2ccc(Cc3cnc(N)nc3N)cc2OC)cc1

>  <Data Validity Comment>  (897) 
nan

>  <Document Journal>  (897) 
nan

>  <Document Year>  (897) 
nan

>  <SRC ID>  (897) 
7

>  <UO Units>  (897) 
UO_0000065

>  <Potential Duplicate>  (897) 
False

>  <Class>  (897) 
0

$$$$

     RDKit          2D

 25 27  0  0  0  0  0  0  0  0999 V2000
   10.3939  -10.9412    0.0000 C   0  0  0  0  0  0  0  0  0  0  0  0
   10.0821   -9.4740    0.0000 C   0  0  0  0  0  0  0  0  0  0  0  0
    9.7702   -8.0068    0.0000 C   0  0  0  0  0  0  0  0  0  0  0  0
   11.5493   -9.1621    0.0000 C   0  0  0  0  0  0  0  0  0  0  0  0
    8.6148   -9.7859    0.0000 C   0  0  0  0  0  0  0  0  0  0  0  0
    7.5001   -8.7822    0.0000 O   0  0  0  0  0  0  0  0  0  0  0  0
    6.2011   -9.5322    0.0000 C   0  0  0  0  0  0  0  0  0  0  0  0
    4.8308   -8.9221    0.0000 C   0  0  0  0  0  0  0  0  0  0  0  0
    4.6740   -7.4303    0.0000 S   0  0  0  0  0  0  0  0  0  0  0  0
    3.3037   -6.8202    0.0000 C   0  0  0  0  0  0  0  0  0  0  0  0
    2.0046   -7.5702    0.0000 C   0  0  0  0  0  0  0  0  0  0  0  0
    0.8899   -6.5665    0.0000 N   0  0  0  0  0  0  0  0  0  0  0  0
    1.5000   -5.1962    0.0000 C   0  0  0  0  0  0  0  0  0  0  0  0
    0.7500   -3.8971    0.0000 N   0  0  0  0  0  0  0  0  0  0  0  0
    1.5000   -2.5981    0.0000 C   0  0  0  0  0  0  0  0  0  0  0  0
    3.0000   -2.5981    0.0000 O   0  0  0  0  0  0  0  0  0  0  0  0
    0.7500   -1.2990    0.0000 C   0  0  0  0  0  0  0  0  0  0  0  0
    1.5000    0.0000    0.0000 C   0  0  0  0  0  0  0  0  0  0  0  0
    0.7500    1.2990    0.0000 C   0  0  0  0  0  0  0  0  0  0  0  0
   -0.7500    1.2990    0.0000 N   0  0  0  0  0  0  0  0  0  0  0  0
   -1.5000    0.0000    0.0000 C   0  0  0  0  0  0  0  0  0  0  0  0
   -0.7500   -1.2990    0.0000 C   0  0  0  0  0  0  0  0  0  0  0  0
    2.9918   -5.3529    0.0000 S   0  0  0  0  0  0  0  0  0  0  0  0
    6.5129  -10.9994    0.0000 N   0  0  0  0  0  0  0  0  0  0  0  0
    8.0047  -11.1562    0.0000 C   0  0  0  0  0  0  0  0  0  0  0  0
  1  2  1  0
  2  3  1  0
  2  4  1  0
  2  5  1  0
  5  6  1  0
  6  7  1  0
  7  8  1  0
  8  9  1  0
  9 10  1  0
 10 11  2  0
 11 12  1  0
 12 13  2  0
 13 14  1  0
 14 15  1  0
 15 16  2  0
 15 17  1  0
 17 18  1  0
 18 19  1  0
 19 20  1  0
 20 21  1  0
 21 22  1  0
 13 23  1  0
  7 24  2  0
 24 25  1  0
 25  5  2  0
 23 10  1  0
 22 17  1  0
M  END
>  <Molecule>  (898) 
CHEMBL296468

>  <Standard Type>  (898) 
Ki

>  <Standard Relation>  (898) 
>

>  <Standard Value>  (898) 
5011.87

>  <Standard Units>  (898) 
nM

>  <pChEMBL Value>  (898) 
nan

>  <Comment>  (898) 
inactive

>  <Compound Key>  (898) 
SID103905658

>  <Assay>  (898) 
CHEMBL1963742

>  <Assay Description>  (898) 
PUBCHEM_BIOASSAY: Navigating the Kinome. (Class of assay: other) Panel member name: JAK3

>  <BAO Format>  (898) 
assay format

>  <Target>  (898) 
CHEMBL2148

>  <Target Pref. Name>  (898) 
Tyrosine-protein kinase JAK3

>  <Target Organism>  (898) 
Homo sapiens

>  <Target Type>  (898) 
SINGLE PROTEIN

>  <Document>  (898) 
CHEMBL1201862

>  <Source>  (898) 
PubChem BioAssays

>  <Max Phase>  (898) 
1

>  <#Ro5 Violations>  (898) 
0

>  <Molecular Weight>  (898) 
380.54

>  <Ligand Efficiency BEI>  (898) 
nan

>  <Ligand Efficiency LE>  (898) 
nan

>  <Ligand Efficiency LLE>  (898) 
nan

>  <Ligand Efficiency SEI>  (898) 
nan

>  <ALogP>  (898) 
3.66

>  <Assay Organism>  (898) 
nan

>  <Assay Tissue ChEMBL ID>  (898) 
nan

>  <Assay Tissue Name>  (898) 
nan

>  <Assay Cell Type>  (898) 
nan

>  <Assay Subcellular Fraction>  (898) 
nan

>  <Organism Tax ID>  (898) 
9606

>  <BAO Format ID>  (898) 
BAO_0000019

>  <Published Type>  (898) 
nan

>  <Published Relation>  (898) 
nan

>  <Published Value>  (898) 
nan

>  <Published Units>  (898) 
nan

>  <Canonical Smiles>  (898) 
CC(C)(C)c1oc(CSc2cnc(NC(=O)C3CCNCC3)s2)nc1

>  <Data Validity Comment>  (898) 
nan

>  <Document Journal>  (898) 
nan

>  <Document Year>  (898) 
nan

>  <SRC ID>  (898) 
7

>  <UO Units>  (898) 
UO_0000065

>  <Potential Duplicate>  (898) 
False

>  <Class>  (898) 
0

$$$$

     RDKit          2D

 30 33  0  0  0  0  0  0  0  0999 V2000
    3.7500   -1.2990    0.0000 C   0  0  0  0  0  0  0  0  0  0  0  0
    3.0000   -2.5981    0.0000 C   0  0  0  0  0  0  0  0  0  0  0  0
    1.5000   -2.5981    0.0000 O   0  0  0  0  0  0  0  0  0  0  0  0
    0.7500   -1.2990    0.0000 C   0  0  0  0  0  0  0  0  0  0  0  0
    1.5000    0.0000    0.0000 C   0  0  0  0  0  0  0  0  0  0  0  0
    0.7500    1.2990    0.0000 C   0  0  0  0  0  0  0  0  0  0  0  0
   -0.7500    1.2990    0.0000 C   0  0  0  0  0  0  0  0  0  0  0  0
   -1.5000    0.0000    0.0000 N   0  0  0  0  0  0  0  0  0  0  0  0
   -0.7500   -1.2990    0.0000 C   0  0  0  0  0  0  0  0  0  0  0  0
   -1.5000   -2.5981    0.0000 N   0  0  0  0  0  0  0  0  0  0  0  0
    1.5000    2.5981    0.0000 C   0  0  0  0  0  0  0  0  0  0  0  0
    0.8899    3.9684    0.0000 C   0  0  0  0  0  0  0  0  0  0  0  0
    2.0046    4.9721    0.0000 N   0  0  0  0  0  0  0  0  0  0  0  0
    3.3037    4.2221    0.0000 N   0  0  0  0  0  0  0  0  0  0  0  0
    2.9918    2.7549    0.0000 C   0  0  0  0  0  0  0  0  0  0  0  0
    4.6740    4.8322    0.0000 C   0  0  0  0  0  0  0  0  0  0  0  0
    5.8875    3.9505    0.0000 C   0  0  0  0  0  0  0  0  0  0  0  0
    7.2578    4.5606    0.0000 C   0  0  0  0  0  0  0  0  0  0  0  0
    7.4146    6.0524    0.0000 N   0  0  0  0  0  0  0  0  0  0  0  0
    6.2011    6.9341    0.0000 C   0  0  0  0  0  0  0  0  0  0  0  0
    4.8308    6.3240    0.0000 C   0  0  0  0  0  0  0  0  0  0  0  0
    3.7500   -3.8971    0.0000 C   0  0  0  0  0  0  0  0  0  0  0  0
    3.0000   -5.1962    0.0000 C   0  0  0  0  0  0  0  0  0  0  0  0
    1.5000   -5.1962    0.0000 Cl  0  0  0  0  0  0  0  0  0  0  0  0
    3.7500   -6.4952    0.0000 C   0  0  0  0  0  0  0  0  0  0  0  0
    5.2500   -6.4952    0.0000 C   0  0  0  0  0  0  0  0  0  0  0  0
    6.0000   -5.1962    0.0000 C   0  0  0  0  0  0  0  0  0  0  0  0
    7.5000   -5.1962    0.0000 F   0  0  0  0  0  0  0  0  0  0  0  0
    5.2500   -3.8971    0.0000 C   0  0  0  0  0  0  0  0  0  0  0  0
    6.0000   -2.5981    0.0000 Cl  0  0  0  0  0  0  0  0  0  0  0  0
  1  2  1  0
  2  3  1  0
  3  4  1  0
  4  5  2  0
  5  6  1  0
  6  7  2  0
  7  8  1  0
  8  9  2  0
  9 10  1  0
  6 11  1  0
 11 12  1  0
 12 13  2  0
 13 14  1  0
 14 15  1  0
 14 16  1  0
 16 17  1  0
 17 18  1  0
 18 19  1  0
 19 20  1  0
 20 21  1  0
  2 22  1  0
 22 23  2  0
 23 24  1  0
 23 25  1  0
 25 26  2  0
 26 27  1  0
 27 28  1  0
 27 29  2  0
 29 30  1  0
  9  4  1  0
 15 11  2  0
 21 16  1  0
 29 22  1  0
M  END
>  <Molecule>  (899) 
CHEMBL1825138

>  <Standard Type>  (899) 
Ki

>  <Standard Relation>  (899) 
>

>  <Standard Value>  (899) 
5011.87

>  <Standard Units>  (899) 
nM

>  <pChEMBL Value>  (899) 
nan

>  <Comment>  (899) 
inactive

>  <Compound Key>  (899) 
SID103905246

>  <Assay>  (899) 
CHEMBL1963742

>  <Assay Description>  (899) 
PUBCHEM_BIOASSAY: Navigating the Kinome. (Class of assay: other) Panel member name: JAK3

>  <BAO Format>  (899) 
assay format

>  <Target>  (899) 
CHEMBL2148

>  <Target Pref. Name>  (899) 
Tyrosine-protein kinase JAK3

>  <Target Organism>  (899) 
Homo sapiens

>  <Target Type>  (899) 
SINGLE PROTEIN

>  <Document>  (899) 
CHEMBL1201862

>  <Source>  (899) 
PubChem BioAssays

>  <Max Phase>  (899) 
0

>  <#Ro5 Violations>  (899) 
1

>  <Molecular Weight>  (899) 
450.35

>  <Ligand Efficiency BEI>  (899) 
nan

>  <Ligand Efficiency LE>  (899) 
nan

>  <Ligand Efficiency LLE>  (899) 
nan

>  <Ligand Efficiency SEI>  (899) 
nan

>  <ALogP>  (899) 
5.04

>  <Assay Organism>  (899) 
nan

>  <Assay Tissue ChEMBL ID>  (899) 
nan

>  <Assay Tissue Name>  (899) 
nan

>  <Assay Cell Type>  (899) 
nan

>  <Assay Subcellular Fraction>  (899) 
nan

>  <Organism Tax ID>  (899) 
9606

>  <BAO Format ID>  (899) 
BAO_0000019

>  <Published Type>  (899) 
nan

>  <Published Relation>  (899) 
nan

>  <Published Value>  (899) 
nan

>  <Published Units>  (899) 
nan

>  <Canonical Smiles>  (899) 
CC(Oc1cc(cnc1N)c2cnn(c2)C3CCNCC3)c4c(Cl)ccc(F)c4Cl

>  <Data Validity Comment>  (899) 
nan

>  <Document Journal>  (899) 
nan

>  <Document Year>  (899) 
nan

>  <SRC ID>  (899) 
7

>  <UO Units>  (899) 
UO_0000065

>  <Potential Duplicate>  (899) 
False

>  <Class>  (899) 
0

$$$$

     RDKit          2D

 31 34  0  0  0  0  0  0  0  0999 V2000
    0.7500   -6.4952    0.0000 C   0  0  0  0  0  0  0  0  0  0  0  0
    1.5000   -5.1962    0.0000 O   0  0  0  0  0  0  0  0  0  0  0  0
    0.7500   -3.8971    0.0000 C   0  0  0  0  0  0  0  0  0  0  0  0
    1.5000   -2.5981    0.0000 C   0  0  0  0  0  0  0  0  0  0  0  0
    0.7500   -1.2990    0.0000 C   0  0  0  0  0  0  0  0  0  0  0  0
    1.5000    0.0000    0.0000 N   0  0  0  0  0  0  0  0  0  0  0  0
    0.7500    1.2990    0.0000 C   0  0  0  0  0  0  0  0  0  0  0  0
   -0.7500    1.2990    0.0000 N   0  0  0  0  0  0  0  0  0  0  0  0
   -1.5000    0.0000    0.0000 C   0  0  0  0  0  0  0  0  0  0  0  0
   -3.0000    0.0000    0.0000 N   0  0  0  0  0  0  0  0  0  0  0  0
   -3.7500    1.2990    0.0000 C   0  0  0  0  0  0  0  0  0  0  0  0
   -3.0000    2.5981    0.0000 C   0  0  0  0  0  0  0  0  0  0  0  0
   -3.7500    3.8971    0.0000 C   0  0  0  0  0  0  0  0  0  0  0  0
   -5.2500    3.8971    0.0000 C   0  0  0  0  0  0  0  0  0  0  0  0
   -6.0000    5.1962    0.0000 F   0  0  0  0  0  0  0  0  0  0  0  0
   -6.0000    2.5981    0.0000 C   0  0  0  0  0  0  0  0  0  0  0  0
   -7.5000    2.5981    0.0000 Cl  0  0  0  0  0  0  0  0  0  0  0  0
   -5.2500    1.2990    0.0000 C   0  0  0  0  0  0  0  0  0  0  0  0
   -0.7500   -1.2990    0.0000 C   0  0  0  0  0  0  0  0  0  0  0  0
   -1.5000   -2.5981    0.0000 C   0  0  0  0  0  0  0  0  0  0  0  0
   -0.7500   -3.8971    0.0000 C   0  0  0  0  0  0  0  0  0  0  0  0
   -1.5000   -5.1962    0.0000 O   0  0  0  0  0  0  0  0  0  0  0  0
   -3.0000   -5.1962    0.0000 C   0  0  0  0  0  0  0  0  0  0  0  0
   -3.7500   -6.4952    0.0000 C   0  0  0  0  0  0  0  0  0  0  0  0
   -5.2500   -6.4952    0.0000 C   0  0  0  0  0  0  0  0  0  0  0  0
   -6.0000   -7.7942    0.0000 N   0  0  0  0  0  0  0  0  0  0  0  0
   -7.5000   -7.7942    0.0000 C   0  0  0  0  0  0  0  0  0  0  0  0
   -8.2500   -9.0933    0.0000 C   0  0  0  0  0  0  0  0  0  0  0  0
   -7.5000  -10.3923    0.0000 O   0  0  0  0  0  0  0  0  0  0  0  0
   -6.0000  -10.3923    0.0000 C   0  0  0  0  0  0  0  0  0  0  0  0
   -5.2500   -9.0933    0.0000 C   0  0  0  0  0  0  0  0  0  0  0  0
  1  2  1  0
  2  3  1  0
  3  4  2  0
  4  5  1  0
  5  6  2  0
  6  7  1  0
  7  8  2  0
  8  9  1  0
  9 10  1  0
 10 11  1  0
 11 12  2  0
 12 13  1  0
 13 14  2  0
 14 15  1  0
 14 16  1  0
 16 17  1  0
 16 18  2  0
  9 19  2  0
 19 20  1  0
 20 21  2  0
 21 22  1  0
 22 23  1  0
 23 24  1  0
 24 25  1  0
 25 26  1  0
 26 27  1  0
 27 28  1  0
 28 29  1  0
 29 30  1  0
 30 31  1  0
 21  3  1  0
 19  5  1  0
 18 11  1  0
 31 26  1  0
M  END
>  <Molecule>  (900) 
CHEMBL939

>  <Standard Type>  (900) 
Ki

>  <Standard Relation>  (900) 
>

>  <Standard Value>  (900) 
1584.89

>  <Standard Units>  (900) 
nM

>  <pChEMBL Value>  (900) 
nan

>  <Comment>  (900) 
inactive

>  <Compound Key>  (900) 
SID103905344

>  <Assay>  (900) 
CHEMBL1963742

>  <Assay Description>  (900) 
PUBCHEM_BIOASSAY: Navigating the Kinome. (Class of assay: other) Panel member name: JAK3

>  <BAO Format>  (900) 
assay format

>  <Target>  (900) 
CHEMBL2148

>  <Target Pref. Name>  (900) 
Tyrosine-protein kinase JAK3

>  <Target Organism>  (900) 
Homo sapiens

>  <Target Type>  (900) 
SINGLE PROTEIN

>  <Document>  (900) 
CHEMBL1201862

>  <Source>  (900) 
PubChem BioAssays

>  <Max Phase>  (900) 
4

>  <#Ro5 Violations>  (900) 
0

>  <Molecular Weight>  (900) 
446.91

>  <Ligand Efficiency BEI>  (900) 
nan

>  <Ligand Efficiency LE>  (900) 
nan

>  <Ligand Efficiency LLE>  (900) 
nan

>  <Ligand Efficiency SEI>  (900) 
nan

>  <ALogP>  (900) 
4.28

>  <Assay Organism>  (900) 
nan

>  <Assay Tissue ChEMBL ID>  (900) 
nan

>  <Assay Tissue Name>  (900) 
nan

>  <Assay Cell Type>  (900) 
nan

>  <Assay Subcellular Fraction>  (900) 
nan

>  <Organism Tax ID>  (900) 
9606

>  <BAO Format ID>  (900) 
BAO_0000019

>  <Published Type>  (900) 
nan

>  <Published Relation>  (900) 
nan

>  <Published Value>  (900) 
nan

>  <Published Units>  (900) 
nan

>  <Canonical Smiles>  (900) 
COc1cc2ncnc(Nc3ccc(F)c(Cl)c3)c2cc1OCCCN4CCOCC4

>  <Data Validity Comment>  (900) 
nan

>  <Document Journal>  (900) 
nan

>  <Document Year>  (900) 
nan

>  <SRC ID>  (900) 
7

>  <UO Units>  (900) 
UO_0000065

>  <Potential Duplicate>  (900) 
False

>  <Class>  (900) 
0

$$$$
